15
Frame 1
H -1.4066 0.2551 1.5219
C -1.1989 0.0553 0.4453
O -2.3645 -0.1876 -0.2914
C -0.1729 -1.0804 0.1724
C -0.2373 1.0778 -0.2320
H -0.5669 -1.8727 -0.5017
H 0.2513 -1.5285 1.0945
H 0.1524 1.8622 0.4509
H -0.6542 1.5442 -1.1523
C 0.7575 -0.0640 -0.5355
H 1.0054 -0.2980 -1.5967
O 2.0199 0.0874 0.1165
H -3.0253 0.4627 -0.0175
H 1.9586 0.6057 0.9316
H 3.4815 -0.9193 -0.4059
15
Frame 2
H -1.4037 0.2540 1.5218
C -1.1973 0.0542 0.4450
O -2.3635 -0.1883 -0.2906
C -0.1718 -1.0819 0.1708
C -0.2359 1.0764 -0.2336
H -0.5667 -1.8741 -0.5030
H 0.2533 -1.5304 1.0923
H 0.1550 1.8607 0.4488
H -0.6535 1.5432 -1.1534
C 0.7574 -0.0658 -0.5382
H 1.0087 -0.2998 -1.5984
O 2.0207 0.0872 0.1170
H -3.0240 0.4620 -0.0161
H 1.9620 0.6050 0.9331
H 3.4593 -0.9025 -0.3953
15
Frame 3
H -1.4007 0.2530 1.5217
C -1.1956 0.0532 0.4446
O -2.3625 -0.1891 -0.2898
C -0.1708 -1.0833 0.1692
C -0.2344 1.0750 -0.2352
H -0.5665 -1.8755 -0.5043
H 0.2553 -1.5324 1.0901
H 0.1577 1.8592 0.4467
H -0.6529 1.5422 -1.1545
C 0.7572 -0.0676 -0.5410
H 1.0119 -0.3016 -1.6001
O 2.0215 0.0869 0.1175
H -3.0228 0.4614 -0.0148
H 1.9653 0.6042 0.9345
H 3.4371 -0.8857 -0.3846
15
Frame 4
H -1.3978 0.2519 1.5215
C -1.1940 0.0521 0.4443
O -2.3615 -0.1898 -0.2890
C -0.1697 -1.0848 0.1677
C -0.2330 1.0736 -0.2367
H -0.5663 -1.8769 -0.5057
H 0.2573 -1.5343 1.0878
H 0.1603 1.8577 0.4446
H -0.6522 1.5411 -1.1556
C 0.7571 -0.0694 -0.5437
H 1.0152 -0.3034 -1.6018
O 2.0223 0.0867 0.1181
H -3.0215 0.4607 -0.0134
H 1.9687 0.6035 0.9360
H 3.4149 -0.8688 -0.3740
15
Frame 5
H -1.3948 0.2509 1.5214
C -1.1924 0.0511 0.4440
O -2.3605 -0.1906 -0.2882
C -0.1686 -1.0862 0.1661
C -0.2315 1.0722 -0.2383
H -0.5660 -1.8783 -0.5070
H 0.2594 -1.5363 1.0856
H 0.1630 1.8562 0.4426
H -0.6516 1.5401 -1.1567
C 0.7569 -0.0712 -0.5465
H 1.0185 -0.3053 -1.6035
O 2.0232 0.0864 0.1186
H -3.0202 0.4601 -0.0121
H 1.9721 0.6028 0.9375
H 3.3927 -0.8520 -0.3633
15
Frame 6
H -1.3919 0.2498 1.5213
C -1.1908 0.0500 0.4436
O -2.3594 -0.1913 -0.2874
C -0.1676 -1.0877 0.1645
C -0.2301 1.0708 -0.2399
H -0.5658 -1.8797 -0.5083
H 0.2614 -1.5382 1.0834
H 0.1656 1.8547 0.4405
H -0.6509 1.5391 -1.1579
C 0.7568 -0.0730 -0.5492
H 1.0217 -0.3071 -1.6052
O 2.0240 0.0862 0.1191
H -3.0190 0.4594 -0.0107
H 1.9754 0.6021 0.9389
H 3.3705 -0.8352 -0.3527
15
Frame 7
H -1.3889 0.2487 1.5212
C -1.1891 0.0490 0.4433
O -2.3584 -0.1920 -0.2866
C -0.1665 -1.0891 0.1629
C -0.2287 1.0694 -0.2415
H -0.5656 -1.8811 -0.5096
H 0.2634 -1.5402 1.0812
H 0.1683 1.8532 0.4384
H -0.6502 1.5381 -1.1590
C 0.7566 -0.0748 -0.5520
H 1.0250 -0.3089 -1.6069
O 2.0248 0.0860 0.1196
H -3.0177 0.4588 -0.0094
H 1.9788 0.6013 0.9404
H 3.3483 -0.8184 -0.3421
15
Frame 8
H -1.3860 0.2477 1.5210
C -1.1875 0.0479 0.4430
O -2.3574 -0.1928 -0.2858
C -0.1654 -1.0906 0.1614
C -0.2272 1.0680 -0.2430
H -0.5654 -1.8825 -0.5109
H 0.2654 -1.5421 1.0790
H 0.1709 1.8517 0.4363
H -0.6496 1.5371 -1.1601
C 0.7565 -0.0766 -0.5547
H 1.0283 -0.3107 -1.6086
O 2.0256 0.0857 0.1201
H -3.0164 0.4581 -0.0080
H 1.9822 0.6006 0.9419
H 3.3261 -0.8015 -0.3314
15
Frame 9
H -1.3830 0.2466 1.5209
C -1.1859 0.0469 0.4426
O -2.3564 -0.1935 -0.2850
C -0.1643 -1.0920 0.1598
C -0.2258 1.0666 -0.2446
H -0.5652 -1.8840 -0.5123
H 0.2674 -1.5441 1.0768
H 0.1736 1.8501 0.4342
H -0.6489 1.5361 -1.1612
C 0.7563 -0.0784 -0.5575
H 1.0316 -0.3125 -1.6103
O 2.0264 0.0855 0.1207
H -3.0151 0.4575 -0.0067
H 1.9856 0.5999 0.9433
H 3.3038 -0.7847 -0.3208
15
Frame 10
H -1.3801 0.2456 1.5208
C -1.1843 0.0458 0.4423
O -2.3554 -0.1943 -0.2842
C -0.1633 -1.0935 0.1582
C -0.2244 1.0652 -0.2462
H -0.5650 -1.8854 -0.5136
H 0.2694 -1.5460 1.0745
H 0.1762 1.8486 0.4321
H -0.6483 1.5350 -1.1623
C 0.7562 -0.0802 -0.5602
H 1.0348 -0.3143 -1.6120
O 2.0272 0.0852 0.1212
H -3.0139 0.4568 -0.0053
H 1.9889 0.5992 0.9448
H 3.2816 -0.7679 -0.3102
15
Frame 11
H -1.3771 0.2445 1.5207
C -1.1826 0.0447 0.4420
O -2.3544 -0.1950 -0.2834
C -0.1622 -1.0949 0.1566
C -0.2229 1.0638 -0.2478
H -0.5648 -1.8868 -0.5149
H 0.2714 -1.5479 1.0723
H 0.1789 1.8471 0.4300
H -0.6476 1.5340 -1.1634
C 0.7561 -0.0820 -0.5630
H 1.0381 -0.3161 -1.6137
O 2.0280 0.0850 0.1217
H -3.0126 0.4562 -0.0039
H 1.9923 0.5984 0.9463
H 3.2594 -0.7511 -0.2995
15
Frame 12
H -1.3742 0.2435 1.5205
C -1.1810 0.0437 0.4416
O -2.3534 -0.1958 -0.2826
C -0.1611 -1.0964 0.1551
C -0.2215 1.0624 -0.2493
H -0.5645 -1.8882 -0.5162
H 0.2735 -1.5499 1.0701
H 0.1815 1.8456 0.4280
H -0.6470 1.5330 -1.1645
C 0.7559 -0.0838 -0.5657
H 1.0414 -0.3180 -1.6154
O 2.0289 0.0847 0.1222
H -3.0113 0.4555 -0.0026
H 1.9957 0.5977 0.9477
H 3.2372 -0.7342 -0.2889
15
Frame 13
H -1.3712 0.2424 1.5204
C -1.1794 0.0426 0.4413
O -2.3524 -0.1965 -0.2818
C -0.1601 -1.0978 0.1535
C -0.2200 1.0610 -0.2509
H -0.5643 -1.8896 -0.5175
H 0.2755 -1.5518 1.0679
H 0.1842 1.8441 0.4259
H -0.6463 1.5320 -1.1656
C 0.7558 -0.0856 -0.5685
H 1.0446 -0.3198 -1.6171
O 2.0297 0.0845 0.1227
H -3.0101 0.4549 -0.0012
H 1.9990 0.5970 0.9492
H 3.2150 -0.7174 -0.2782
15
Frame 14
H -1.3683 0.2413 1.5203
C -1.1777 0.0416 0.4410
O -2.3514 -0.1972 -0.2810
C -0.1590 -1.0993 0.1519
C -0.2186 1.0596 -0.2525
H -0.5641 -1.8910 -0.5189
H 0.2775 -1.5538 1.0657
H 0.1868 1.8426 0.4238
H -0.6456 1.5310 -1.1667
C 0.7556 -0.0874 -0.5712
H 1.0479 -0.3216 -1.6188
O 2.0305 0.0843 0.1233
H -3.0088 0.4542 0.0001
H 2.0024 0.5962 0.9507
H 3.1928 -0.7006 -0.2676
15
Frame 15
H -1.3653 0.2403 1.5202
C -1.1761 0.0405 0.4406
O -2.3504 -0.1980 -0.2802
C -0.1579 -1.1007 0.1503
C -0.2172 1.0582 -0.2541
H -0.5639 -1.8924 -0.5202
H 0.2795 -1.5557 1.0635
H 0.1895 1.8411 0.4217
H -0.6450 1.5300 -1.1678
C 0.7555 -0.0892 -0.5740
H 1.0512 -0.3234 -1.6205
O 2.0313 0.0840 0.1238
H -3.0075 0.4536 0.0015
H 2.0058 0.5955 0.9521
H 3.1706 -0.6838 -0.2570
15
Frame 16
H -1.3624 0.2392 1.5200
C -1.1745 0.0395 0.4403
O -2.3493 -0.1987 -0.2795
C -0.1569 -1.1022 0.1488
C -0.2157 1.0567 -0.2556
H -0.5637 -1.8938 -0.5215
H 0.2815 -1.5577 1.0612
H 0.1921 1.8396 0.4196
H -0.6443 1.5289 -1.1690
C 0.7553 -0.0911 -0.5767
H 1.0544 -0.3252 -1.6221
O 2.0321 0.0838 0.1243
H -3.0063 0.4529 0.0028
H 2.0091 0.5948 0.9536
H 3.1484 -0.6669 -0.2463
15
Frame 17
H -1.3594 0.2382 1.5199
C -1.1729 0.0384 0.4399
O -2.3483 -0.1995 -0.2787
C -0.1558 -1.1036 0.1472
C -0.2143 1.0553 -0.2572
H -0.5635 -1.8952 -0.5228
H 0.2835 -1.5596 1.0590
H 0.1948 1.8381 0.4175
H -0.6437 1.5279 -1.1701
C 0.7552 -0.0929 -0.5795
H 1.0577 -0.3270 -1.6238
O 2.0329 0.0835 0.1248
H -3.0050 0.4523 0.0042
H 2.0125 0.5941 0.9550
H 3.1262 -0.6501 -0.2357
15
Frame 18
H -1.3565 0.2371 1.5198
C -1.1712 0.0374 0.4396
O -2.3473 -0.2002 -0.2779
C -0.1547 -1.1051 0.1456
C -0.2129 1.0539 -0.2588
H -0.5633 -1.8966 -0.5242
H 0.2855 -1.5616 1.0568
H 0.1974 1.8366 0.4154
H -0.6430 1.5269 -1.1712
C 0.7550 -0.0947 -0.5822
H 1.0610 -0.3288 -1.6255
O 2.0337 0.0833 0.1254
H -3.0037 0.4516 0.0055
H 2.0159 0.5933 0.9565
H 3.1040 -0.6333 -0.2251
15
Frame 19
H -1.3535 0.2360 1.5197
C -1.1696 0.0363 0.4393
O -2.3463 -0.2009 -0.2771
C -0.1537 -1.1065 0.1440
C -0.2114 1.0525 -0.2604
H -0.5631 -1.8980 -0.5255
H 0.2875 -1.5635 1.0546
H 0.2001 1.8351 0.4133
H -0.6423 1.5259 -1.1723
C 0.7549 -0.0965 -0.5850
H 1.0642 -0.3306 -1.6272
O 2.0345 0.0831 0.1259
H -3.0025 0.4510 0.0069
H 2.0192 0.5926 0.9580
H 3.0818 -0.6165 -0.2144
15
Frame 20
H -1.3506 0.2350 1.5195
C -1.1680 0.0353 0.4389
O -2.3453 -0.2017 -0.2763
C -0.1526 -1.1080 0.1425
C -0.2100 1.0511 -0.2619
H -0.5628 -1.8994 -0.5268
H 0.2896 -1.5655 1.0524
H 0.2027 1.8336 0.4113
H -0.6417 1.5249 -1.1734
C 0.7547 -0.0983 -0.5877
H 1.0675 -0.3325 -1.6289
O 2.0354 0.0828 0.1264
H -3.0012 0.4503 0.0082
H 2.0226 0.5919 0.9594
H 3.0596 -0.5996 -0.2038
15
Frame 21
H -1.3476 0.2339 1.5194
C -1.1663 0.0342 0.4386
O -2.3443 -0.2024 -0.2755
C -0.1515 -1.1094 0.1409
C -0.2085 1.0497 -0.2635
H -0.5626 -1.9008 -0.5281
H 0.2916 -1.5674 1.0502
H 0.2054 1.8321 0.4092
H -0.6410 1.5239 -1.1745
C 0.7546 -0.1001 -0.5905
H 1.0708 -0.3343 -1.6306
O 2.0362 0.0826 0.1269
H -2.9999 0.4497 0.0096
H 2.0260 0.5911 0.9609
H 3.0374 -0.5828 -0.1931
15
Frame 22
H -1.3447 0.2329 1.5193
C -1.1647 0.0331 0.4383
O -2.3433 -0.2032 -0.2747
C -0.1505 -1.1109 0.1393
C -0.2071 1.0483 -0.2651
H -0.5624 -1.9022 -0.5294
H 0.2936 -1.5693 1.0479
H 0.2080 1.8306 0.4071
H -0.6404 1.5228 -1.1756
C 0.7545 -0.1019 -0.5932
H 1.0740 -0.3361 -1.6323
O 2.0370 0.0823 0.1274
H -2.9987 0.4490 0.0110
H 2.0293 0.5904 0.9624
H 3.0152 -0.5660 -0.1825
15
Frame 23
H -1.3417 0.2318 1.5192
C -1.1631 0.0321 0.4379
O -2.3423 -0.2039 -0.2739
C -0.1494 -1.1123 0.1377
C -0.2057 1.0469 -0.2667
H -0.5622 -1.9037 -0.5308
H 0.2956 -1.5713 1.0457
H 0.2107 1.8290 0.4050
H -0.6397 1.5218 -1.1767
C 0.7543 -0.1037 -0.5960
H 1.0773 -0.3379 -1.6340
O 2.0378 0.0821 0.1280
H -2.9974 0.4484 0.0123
H 2.0327 0.5897 0.9638
H 2.9930 -0.5492 -0.1719
15
Frame 24
H -1.3388 0.2308 1.5190
C -1.1615 0.0310 0.4376
O -2.3413 -0.2047 -0.2731
C -0.1483 -1.1138 0.1362
C -0.2042 1.0455 -0.2682
H -0.5620 -1.9051 -0.5321
H 0.2976 -1.5732 1.0435
H 0.2133 1.8275 0.4029
H -0.6391 1.5208 -1.1778
C 0.7542 -0.1055 -0.5987
H 1.0806 -0.3397 -1.6357
O 2.0386 0.0818 0.1285
H -2.9961 0.4477 0.0137
H 2.0361 0.5890 0.9653
H 2.9707 -0.5323 -0.1612
15
Frame 25
H -1.3358 0.2297 1.5189
C -1.1598 0.0300 0.4373
O -2.3403 -0.2054 -0.2723
C -0.1472 -1.1152 0.1346
C -0.2028 1.0441 -0.2698
H -0.5618 -1.9065 -0.5334
H 0.2996 -1.5752 1.0413
H 0.2160 1.8260 0.4008
H -0.6384 1.5198 -1.1789
C 0.7540 -0.1073 -0.6015
H 1.0839 -0.3415 -1.6374
O 2.0394 0.0816 0.1290
H -2.9948 0.4471 0.0150
H 2.0395 0.5882 0.9668
H 2.9485 -0.5155 -0.1506
15
Frame 26
H -1.3329 0.2286 1.5188
C -1.1582 0.0289 0.4369
O -2.3392 -0.2061 -0.2715
C -0.1462 -1.1167 0.1330
C -0.2014 1.0427 -0.2714
H -0.5616 -1.9079 -0.5347
H 0.3016 -1.5771 1.0391
H 0.2186 1.8245 0.3987
H -0.6377 1.5188 -1.1801
C 0.7539 -0.1091 -0.6042
H 1.0871 -0.3433 -1.6391
O 2.0402 0.0814 0.1295
H -2.9936 0.4464 0.0164
H 2.0428 0.5875 0.9682
H 2.9263 -0.4987 -0.1400
15
Frame 27
H -1.3299 0.2276 1.5187
C -1.1566 0.0279 0.4366
O -2.3382 -0.2069 -0.2707
C -0.1451 -1.1181 0.1314
C -0.1999 1.0413 -0.2730
H -0.5613 -1.9093 -0.5360
H 0.3037 -1.5791 1.0369
H 0.2213 1.8230 0.3967
H -0.6371 1.5178 -1.1812
C 0.7537 -0.1109 -0.6070
H 1.0904 -0.3452 -1.6408
O 2.0411 0.0811 0.1300
H -2.9923 0.4458 0.0177
H 2.0462 0.5868 0.9697
H 2.9041 -0.4819 -0.1293
15
Frame 28
H -1.3270 0.2265 1.5185
C -1.1550 0.0268 0.4363
O -2.3372 -0.2076 -0.2699
C -0.1440 -1.1196 0.1299
C -0.1985 1.0399 -0.2745
H -0.5611 -1.9107 -0.5374
H 0.3057 -1.5810 1.0346
H 0.2239 1.8215 0.3946
H -0.6364 1.5167 -1.1823
C 0.7536 -0.1127 -0.6097
H 1.0937 -0.3470 -1.6425
O 2.0419 0.0809 0.1306
H -2.9910 0.4451 0.0191
H 2.0496 0.5861 0.9712
H 2.8819 -0.4650 -0.1187
15
Frame 29
H -1.3240 0.2255 1.5184
C -1.1533 0.0258 0.4359
O -2.3362 -0.2084 -0.2691
C -0.1430 -1.1210 0.1283
C -0.1970 1.0385 -0.2761
H -0.5609 -1.9121 -0.5387
H 0.3077 -1.5830 1.0324
H 0.2266 1.8200 0.3925
H -0.6358 1.5157 -1.1834
C 0.7534 -0.1145 -0.6125
H 1.0969 -0.3488 -1.6442
O 2.0427 0.0806 0.1311
H -2.9898 0.4445 0.0204
H 2.0529 0.5853 0.9726
H 2.8597 -0.4482 -0.1080
15
Frame 30
H -1.3211 0.2244 1.5183
C -1.1517 0.0247 0.4356
O -2.3352 -0.2091 -0.2683
C -0.1419 -1.1225 0.1267
C -0.1956 1.0371 -0.2777
H -0.5607 -1.9135 -0.5400
H 0.3097 -1.5849 1.0302
H 0.2292 1.8185 0.3904
H -0.6351 1.5147 -1.1845
C 0.7533 -0.1163 -0.6152
H 1.1002 -0.3506 -1.6459
O 2.0435 0.0804 0.1316
H -2.9885 0.4438 0.0218
H 2.0563 0.5846 0.9741
H 2.8375 -0.4314 -0.0974
