27
Frame 1
C 1.1442 -0.6529 -1.4683
C 0.7698 0.3072 -0.3606
C -1.6737 -0.1111 -0.8722
C -0.8769 -0.1380 1.4240
C -1.8288 -0.8707 0.4584
C 0.5912 -0.3766 1.0267
C -0.6270 0.9725 -0.5565
H -2.6403 0.3736 -1.1612
H -1.6147 -1.9598 0.3547
O 0.8899 -1.8535 1.0028
H -0.6066 1.8174 -1.2732
C 1.8476 1.3747 -0.2584
H -1.3730 -0.7769 -1.7131
H -1.0861 -0.3065 2.4994
H -2.8766 -0.7850 0.8441
H 1.3277 -0.0362 1.8056
H -0.3249 2.0411 1.4015
C -1.0160 1.3254 0.9055
H -2.0608 1.7003 0.9960
H 1.9372 1.9082 -1.2371
H 2.8358 0.9148 -0.0145
H 1.5993 2.1275 0.5281
H 1.0132 -0.1401 -2.4558
H 0.5053 -1.5693 -1.4791
H 2.2175 -0.9582 -1.3877
H 0.1840 -2.3335 0.4866
H 1.7425 -1.9941 0.5044
27
Frame 2
C 1.1476 -0.6492 -1.4663
C 0.7700 0.3103 -0.3591
C -1.6735 -0.1118 -0.8696
C -0.8746 -0.1327 1.4263
C -1.8283 -0.8671 0.4633
C 0.5895 -0.3647 1.0277
C -0.6283 0.9740 -0.5577
H -2.6406 0.3708 -1.1607
H -1.6164 -1.9568 0.3637
O 0.8857 -1.8841 0.9935
H -0.6083 1.8167 -1.2769
C 1.8464 1.3800 -0.2569
H -1.3720 -0.7801 -1.7082
H -1.0839 -0.2990 2.5023
H -2.8756 -0.7780 0.8500
H 1.3364 -0.0571 1.8061
H -0.3282 2.0494 1.3977
C -1.0175 1.3306 0.9037
H -2.0634 1.7025 0.9942
H 1.9337 1.9141 -1.2355
H 2.8357 0.9215 -0.0146
H 1.5978 2.1319 0.5303
H 1.0239 -0.1338 -2.4535
H 0.5058 -1.5633 -1.4827
H 2.2194 -0.9579 -1.3797
H 0.1818 -2.3474 0.4655
H 1.7371 -2.0188 0.4972
27
Frame 3
C 1.1527 -0.6444 -1.4646
C 0.7701 0.3135 -0.3581
C -1.6736 -0.1143 -0.8662
C -0.8719 -0.1262 1.4292
C -1.8287 -0.8628 0.4707
C 0.5879 -0.3539 1.0281
C -0.6300 0.9747 -0.5596
H -2.6411 0.3654 -1.1608
H -1.6207 -1.9535 0.3776
O 0.8779 -1.9163 0.9813
H -0.6114 1.8143 -1.2823
C 1.8442 1.3862 -0.2548
H -1.3705 -0.7867 -1.7010
H -1.0800 -0.2891 2.5060
H -2.8751 -0.7680 0.8586
H 1.3459 -0.0811 1.8049
H -0.3308 2.0588 1.3916
C -1.0184 1.3364 0.9009
H -2.0653 1.7054 0.9917
H 1.9278 1.9230 -1.2323
H 2.8352 0.9296 -0.0159
H 1.5955 2.1354 0.5348
H 1.0403 -0.1250 -2.4510
H 0.5071 -1.5553 -1.4900
H 2.2222 -0.9583 -1.3687
H 0.1794 -2.3610 0.4361
H 1.7315 -2.0469 0.4937
27
Frame 4
C 1.1564 -0.6402 -1.4624
C 0.7700 0.3172 -0.3570
C -1.6737 -0.1148 -0.8636
C -0.8697 -0.1202 1.4316
C -1.8281 -0.8588 0.4758
C 0.5863 -0.3426 1.0287
C -0.6316 0.9765 -0.5611
H -2.6417 0.3626 -1.1602
H -1.6213 -1.9498 0.3871
O 0.8726 -1.9473 0.9711
H -0.6137 1.8138 -1.2865
C 1.8427 1.3922 -0.2532
H -1.3696 -0.7899 -1.6959
H -1.0775 -0.2806 2.5089
H -2.8739 -0.7610 0.8647
H 1.3541 -0.1037 1.8036
H -0.3339 2.0679 1.3871
C -1.0198 1.3422 0.8987
H -2.0677 1.7080 0.9898
H 1.9230 1.9306 -1.2301
H 2.8349 0.9367 -0.0173
H 1.5943 2.1396 0.5381
H 1.0522 -0.1187 -2.4486
H 0.5078 -1.5488 -1.4934
H 2.2240 -0.9581 -1.3593
H 0.1780 -2.3782 0.4151
H 1.7262 -2.0746 0.4881
27
Frame 5
C 1.1604 -0.6357 -1.4603
C 0.7697 0.3213 -0.3560
C -1.6739 -0.1156 -0.8608
C -0.8673 -0.1135 1.4340
C -1.8276 -0.8545 0.4815
C 0.5848 -0.3317 1.0290
C -0.6333 0.9784 -0.5629
H -2.6425 0.3593 -1.1596
H -1.6219 -1.9459 0.3978
O 0.8658 -1.9790 0.9599
H -0.6165 1.8130 -1.2911
C 1.8409 1.3985 -0.2514
H -1.3686 -0.7936 -1.6903
H -1.0745 -0.2713 2.5120
H -2.8727 -0.7536 0.8715
H 1.3623 -0.1280 1.8012
H -0.3369 2.0775 1.3818
C -1.0209 1.3484 0.8962
H -2.0699 1.7110 0.9878
H 1.9184 1.9384 -1.2276
H 2.8342 0.9442 -0.0178
H 1.5924 2.1442 0.5415
H 1.0642 -0.1122 -2.4462
H 0.5094 -1.5421 -1.4968
H 2.2262 -0.9569 -1.3498
H 0.1769 -2.3965 0.3917
H 1.7209 -2.1042 0.4843
27
Frame 6
C 1.1644 -0.6311 -1.4580
C 0.7692 0.3256 -0.3552
C -1.6744 -0.1160 -0.8578
C -0.8648 -0.1065 1.4365
C -1.8268 -0.8501 0.4872
C 0.5833 -0.3211 1.0291
C -0.6352 0.9805 -0.5647
H -2.6437 0.3562 -1.1585
H -1.6213 -1.9417 0.4084
O 0.8587 -2.0108 0.9483
H -0.6196 1.8125 -1.2959
C 1.8389 1.4051 -0.2496
H -1.3682 -0.7969 -1.6847
H -1.0713 -0.2617 2.5151
H -2.8713 -0.7467 0.8786
H 1.3700 -0.1531 1.7978
H -0.3398 2.0874 1.3764
C -1.0221 1.3549 0.8936
H -2.0722 1.7143 0.9860
H 1.9139 1.9462 -1.2254
H 2.8332 0.9520 -0.0180
H 1.5901 2.1495 0.5444
H 1.0782 -0.1053 -2.4436
H 0.5099 -1.5346 -1.5009
H 2.2277 -0.9572 -1.3386
H 0.1769 -2.4164 0.3675
H 1.7162 -2.1350 0.4820
27
Frame 7
C 1.1681 -0.6265 -1.4553
C 0.7684 0.3305 -0.3545
C -1.6749 -0.1159 -0.8551
C -0.8623 -0.0991 1.4388
C -1.8256 -0.8456 0.4924
C 0.5819 -0.3106 1.0289
C -0.6372 0.9831 -0.5666
H -2.6451 0.3538 -1.1570
H -1.6192 -1.9371 0.4179
O 0.8521 -2.0425 0.9367
H -0.6228 1.8127 -1.3006
C 1.8369 1.4119 -0.2479
H -1.3681 -0.7992 -1.6797
H -1.0682 -0.2520 2.5180
H -2.8694 -0.7409 0.8852
H 1.3771 -0.1788 1.7934
H -0.3429 2.0976 1.3711
C -1.0234 1.3617 0.8910
H -2.0746 1.7176 0.9843
H 1.9095 1.9541 -1.2234
H 2.8321 0.9599 -0.0183
H 1.5881 2.1551 0.5471
H 1.0917 -0.0992 -2.4408
H 0.5101 -1.5271 -1.5038
H 2.2288 -0.9573 -1.3271
H 0.1771 -2.4391 0.3460
H 1.7115 -2.1669 0.4790
27
Frame 8
C 1.1714 -0.6220 -1.4524
C 0.7675 0.3357 -0.3538
C -1.6755 -0.1151 -0.8526
C -0.8599 -0.0915 1.4409
C -1.8241 -0.8410 0.4971
C 0.5804 -0.3004 1.0286
C -0.6392 0.9863 -0.5684
H -2.6467 0.3522 -1.1554
H -1.6156 -1.9322 0.4264
O 0.8459 -2.0743 0.9254
H -0.6259 1.8135 -1.3050
C 1.8349 1.4190 -0.2463
H -1.3681 -0.8005 -1.6753
H -1.0652 -0.2422 2.5206
H -2.8672 -0.7358 0.8913
H 1.3836 -0.2054 1.7881
H -0.3462 2.1081 1.3660
C -1.0247 1.3688 0.8884
H -2.0770 1.7212 0.9827
H 1.9052 1.9621 -1.2215
H 2.8310 0.9678 -0.0186
H 1.5861 2.1610 0.5497
H 1.1040 -0.0938 -2.4380
H 0.5103 -1.5199 -1.5051
H 2.2297 -0.9570 -1.3157
H 0.1780 -2.4648 0.3266
H 1.7073 -2.1999 0.4765
27
Frame 9
C 1.1744 -0.6174 -1.4493
C 0.7663 0.3415 -0.3531
C -1.6762 -0.1136 -0.8502
C -0.8573 -0.0835 1.4430
C -1.8222 -0.8363 0.5014
C 0.5789 -0.2903 1.0280
C -0.6413 0.9900 -0.5703
H -2.6484 0.3511 -1.1535
H -1.6106 -1.9270 0.4343
O 0.8397 -2.1061 0.9139
H -0.6291 1.8149 -1.3095
C 1.8329 1.4263 -0.2448
H -1.3682 -0.8009 -1.6713
H -1.0623 -0.2322 2.5231
H -2.8647 -0.7314 0.8973
H 1.3892 -0.2326 1.7817
H -0.3496 2.1188 1.3608
C -1.0262 1.3762 0.8858
H -2.0796 1.7250 0.9811
H 1.9012 1.9700 -1.2197
H 2.8297 0.9758 -0.0187
H 1.5841 2.1675 0.5520
H 1.1153 -0.0888 -2.4351
H 0.5106 -1.5129 -1.5054
H 2.2303 -0.9563 -1.3043
H 0.1795 -2.4934 0.3080
H 1.7034 -2.2344 0.4748
27
Frame 10
C 1.1770 -0.6127 -1.4458
C 0.7649 0.3478 -0.3525
C -1.6769 -0.1115 -0.8481
C -0.8548 -0.0750 1.4448
C -1.8198 -0.8315 0.5052
C 0.5774 -0.2806 1.0271
C -0.6435 0.9944 -0.5722
H -2.6502 0.3509 -1.1513
H -1.6040 -1.9214 0.4410
O 0.8340 -2.1382 0.9025
H -0.6323 1.8172 -1.3136
C 1.8308 1.4340 -0.2433
H -1.3686 -0.8001 -1.6679
H -1.0594 -0.2220 2.5254
H -2.8618 -0.7279 0.9029
H 1.3942 -0.2611 1.7742
H -0.3531 2.1299 1.3558
C -1.0278 1.3840 0.8832
H -2.0824 1.7291 0.9796
H 1.8976 1.9778 -1.2185
H 2.8281 0.9842 -0.0182
H 1.5818 2.1749 0.5536
H 1.1254 -0.0846 -2.4322
H 0.5108 -1.5062 -1.5040
H 2.2307 -0.9549 -1.2930
H 0.1816 -2.5260 0.2917
H 1.7001 -2.2705 0.4735
27
Frame 11
C 1.1787 -0.6082 -1.4419
C 0.7634 0.3548 -0.3517
C -1.6775 -0.1079 -0.8466
C -0.8524 -0.0664 1.4463
C -1.8169 -0.8266 0.5076
C 0.5759 -0.2707 1.0261
C -0.6455 1.0000 -0.5738
H -2.6521 0.3523 -1.1491
H -1.5953 -1.9153 0.4451
O 0.8308 -2.1698 0.8918
H -0.6352 1.8211 -1.3170
C 1.8291 1.4419 -0.2422
H -1.3689 -0.7970 -1.6660
H -1.0571 -0.2125 2.5270
H -2.8583 -0.7259 0.9071
H 1.3979 -0.2898 1.7658
H -0.3571 2.1409 1.3518
C -1.0297 1.3921 0.8810
H -2.0855 1.7333 0.9784
H 1.8954 1.9845 -1.2180
H 2.8264 0.9925 -0.0165
H 1.5793 2.1835 0.5538
H 1.1317 -0.0819 -2.4293
H 0.5111 -1.5006 -1.4990
H 2.2308 -0.9521 -1.2828
H 0.1835 -2.5646 0.2830
H 1.6971 -2.3075 0.4692
27
Frame 12
C 1.1792 -0.6034 -1.4379
C 0.7617 0.3627 -0.3508
C -1.6779 -0.1025 -0.8461
C -0.8502 -0.0577 1.4472
C -1.8134 -0.8215 0.5082
C 0.5742 -0.2613 1.0247
C -0.6474 1.0070 -0.5751
H -2.6539 0.3557 -1.1470
H -1.5843 -1.9086 0.4459
O 0.8303 -2.2014 0.8826
H -0.6375 1.8271 -1.3194
C 1.8276 1.4501 -0.2411
H -1.3689 -0.7912 -1.6659
H -1.0556 -0.2036 2.5279
H -2.8543 -0.7255 0.9096
H 1.4006 -0.3196 1.7562
H -0.3614 2.1520 1.3489
C -1.0318 1.4005 0.8792
H -2.0888 1.7379 0.9777
H 1.8955 1.9897 -1.2186
H 2.8244 1.0009 -0.0125
H 1.5762 2.1939 0.5522
H 1.1315 -0.0809 -2.4271
H 0.5125 -1.4970 -1.4893
H 2.2313 -0.9456 -1.2758
H 0.1855 -2.6115 0.2838
H 1.6949 -2.3462 0.4627
27
Frame 13
C 1.1787 -0.5983 -1.4333
C 0.7601 0.3718 -0.3497
C -1.6778 -0.0954 -0.8466
C -0.8482 -0.0489 1.4475
C -1.8089 -0.8163 0.5069
C 0.5726 -0.2518 1.0230
C -0.6490 1.0157 -0.5760
H -2.6554 0.3608 -1.1454
H -1.5708 -1.9014 0.4432
O 0.8330 -2.2327 0.8740
H -0.6393 1.8353 -1.3208
C 1.8266 1.4591 -0.2402
H -1.3682 -0.7825 -1.6676
H -1.0548 -0.1957 2.5280
H -2.8496 -0.7268 0.9101
H 1.4023 -0.3503 1.7455
H -0.3664 2.1629 1.3473
C -1.0344 1.4091 0.8779
H -2.0926 1.7424 0.9772
H 1.8985 1.9932 -1.2204
H 2.8221 1.0100 -0.0055
H 1.5722 2.2071 0.5480
H 1.1246 -0.0819 -2.4252
H 0.5155 -1.4952 -1.4741
H 2.2326 -0.9351 -1.2717
H 0.1851 -2.6683 0.2994
H 1.6916 -2.3870 0.4486
27
Frame 14
C 1.1743 -0.5926 -1.4288
C 0.7586 0.3829 -0.3481
C -1.6768 -0.0831 -0.8507
C -0.8474 -0.0419 1.4457
C -1.8026 -0.8117 0.4990
C 0.5708 -0.2418 1.0213
C -0.6498 1.0283 -0.5757
H -2.6561 0.3723 -1.1450
H -1.5509 -1.8933 0.4282
O 0.8487 -2.2621 0.8715
H -0.6387 1.8499 -1.3182
C 1.8275 1.4680 -0.2398
H -1.3664 -0.7649 -1.6760
H -1.0575 -0.1927 2.5250
H -2.8435 -0.7343 0.9033
H 1.4023 -0.3787 1.7350
H -0.3727 2.1720 1.3506
C -1.0378 1.4174 0.8786
H -2.0974 1.7463 0.9783
H 1.9100 1.9904 -1.2256
H 2.8193 1.0188 0.0094
H 1.5669 2.2258 0.5371
H 1.0989 -0.0871 -2.4247
H 0.5210 -1.4977 -1.4469
H 2.2342 -0.9153 -1.2783
H 0.1808 -2.7464 0.3651
H 1.6844 -2.4287 0.4096
27
Frame 15
C 1.1769 -0.5810 -1.4294
C 0.7585 0.3942 -0.3488
C -1.6743 -0.0762 -0.8527
C -0.8442 -0.0317 1.4447
C -1.7952 -0.8079 0.4954
C 0.5696 -0.2375 1.0153
C -0.6505 1.0381 -0.5770
H -2.6555 0.3761 -1.1449
H -1.5334 -1.8868 0.4230
O 0.8379 -2.2998 0.8572
H -0.6405 1.8598 -1.3193
C 1.8264 1.4797 -0.2364
H -1.3621 -0.7556 -1.6795
H -1.0547 -0.1841 2.5236
H -2.8354 -0.7381 0.9017
H 1.3959 -0.4155 1.7112
H -0.3780 2.1825 1.3492
C -1.0402 1.4255 0.8770
H -2.1009 1.7509 0.9761
H 1.9122 2.0013 -1.2223
H 2.8173 1.0309 0.0166
H 1.5623 2.2378 0.5389
H 1.0909 -0.0797 -2.4258
H 0.5321 -1.4916 -1.4396
H 2.2398 -0.8940 -1.2841
H 0.2016 -2.8013 0.4523
H 1.6436 -2.4963 0.3778
27
Frame 16
C 1.1795 -0.5695 -1.4301
C 0.7584 0.4054 -0.3494
C -1.6717 -0.0694 -0.8547
C -0.8410 -0.0215 1.4437
C -1.7879 -0.8040 0.4918
C 0.5684 -0.2332 1.0092
C -0.6512 1.0479 -0.5784
H -2.6549 0.3800 -1.1447
H -1.5158 -1.8802 0.4177
O 0.8272 -2.3375 0.8428
H -0.6422 1.8697 -1.3205
C 1.8253 1.4915 -0.2331
H -1.3578 -0.7462 -1.6829
H -1.0520 -0.1755 2.5221
H -2.8273 -0.7418 0.9001
H 1.3894 -0.4523 1.6873
H -0.3832 2.1929 1.3477
C -1.0427 1.4336 0.8754
H -2.1045 1.7555 0.9739
H 1.9144 2.0123 -1.2191
H 2.8154 1.0430 0.0238
H 1.5577 2.2497 0.5408
H 1.0828 -0.0722 -2.4269
H 0.5432 -1.4855 -1.4323
H 2.2453 -0.8727 -1.2898
H 0.2223 -2.8561 0.5394
H 1.6028 -2.5639 0.3461
27
Frame 17
C 1.1820 -0.5579 -1.4307
C 0.7583 0.4167 -0.3501
C -1.6692 -0.0625 -0.8568
C -0.8378 -0.0112 1.4426
C -1.7805 -0.8002 0.4882
C 0.5671 -0.2289 1.0032
C -0.6518 1.0576 -0.5797
H -2.6542 0.3838 -1.1446
H -1.4983 -1.8737 0.4125
O 0.8164 -2.3752 0.8285
H -0.6440 1.8796 -1.3216
C 1.8243 1.5032 -0.2297
H -1.3535 -0.7369 -1.6864
H -1.0492 -0.1669 2.5207
H -2.8192 -0.7456 0.8984
H 1.3830 -0.4892 1.6635
H -0.3885 2.2034 1.3463
C -1.0451 1.4417 0.8739
H -2.1080 1.7602 0.9716
H 1.9166 2.0232 -1.2158
H 2.8134 1.0551 0.0310
H 1.5531 2.2617 0.5426
H 1.0748 -0.0648 -2.4279
H 0.5543 -1.4794 -1.4250
H 2.2509 -0.8513 -1.2956
H 0.2431 -2.9110 0.6266
H 1.5620 -2.6315 0.3143
27
Frame 18
C 1.1846 -0.5463 -1.4313
C 0.7582 0.4279 -0.3508
C -1.6667 -0.0556 -0.8588
C -0.8346 -0.0010 1.4416
C -1.7731 -0.7963 0.4846
C 0.5659 -0.2246 0.9971
C -0.6525 1.0674 -0.5811
H -2.6536 0.3877 -1.1445
H -1.4807 -1.8672 0.4073
O 0.8056 -2.4129 0.8142
H -0.6457 1.8895 -1.3227
C 1.8232 1.5149 -0.2263
H -1.3492 -0.7275 -1.6898
H -1.0464 -0.1583 2.5192
H -2.8111 -0.7494 0.8968
H 1.3766 -0.5260 1.6397
H -0.3937 2.2138 1.3449
C -1.0475 1.4498 0.8723
H -2.1115 1.7648 0.9694
H 1.9188 2.0341 -1.2126
H 2.8114 1.0672 0.0382
H 1.5485 2.2736 0.5444
H 1.0668 -0.0574 -2.4290
H 0.5654 -1.4733 -1.4177
H 2.2564 -0.8300 -1.3014
H 0.2639 -2.9659 0.7137
H 1.5212 -2.6991 0.2825
27
Frame 19
C 1.1872 -0.5348 -1.4320
C 0.7581 0.4392 -0.3515
C -1.6641 -0.0488 -0.8608
C -0.8314 0.0092 1.4406
C -1.7658 -0.7925 0.4810
C 0.5647 -0.2203 0.9911
C -0.6532 1.0772 -0.5824
H -2.6530 0.3915 -1.1443
H -1.4632 -1.8607 0.4020
O 0.7949 -2.4506 0.7998
H -0.6475 1.8994 -1.3238
C 1.8221 1.5267 -0.2229
H -1.3449 -0.7182 -1.6933
H -1.0436 -0.1497 2.5178
H -2.8030 -0.7531 0.8952
H 1.3701 -0.5628 1.6158
H -0.3990 2.2243 1.3435
C -1.0500 1.4579 0.8707
H -2.1151 1.7694 0.9672
H 1.9210 2.0450 -1.2093
H 2.8095 1.0793 0.0454
H 1.5439 2.2856 0.5463
H 1.0588 -0.0500 -2.4301
H 0.5765 -1.4672 -1.4104
H 2.2620 -0.8087 -1.3071
H 0.2846 -3.0208 0.8009
H 1.4804 -2.7667 0.2508
27
Frame 20
C 1.1898 -0.5232 -1.4326
C 0.7579 0.4504 -0.3521
C -1.6616 -0.0419 -0.8628
C -0.8281 0.0194 1.4396
C -1.7584 -0.7886 0.4774
C 0.5635 -0.2161 0.9850
C -0.6539 1.0870 -0.5838
H -2.6524 0.3954 -1.1442
H -1.4456 -1.8541 0.3968
O 0.7841 -2.4884 0.7855
H -0.6492 1.9094 -1.3250
C 1.8210 1.5384 -0.2196
H -1.3407 -0.7088 -1.6967
H -1.0409 -0.1411 2.5163
H -2.7949 -0.7569 0.8936
H 1.3637 -0.5996 1.5920
H -0.4042 2.2347 1.3420
C -1.0524 1.4661 0.8691
H -2.1186 1.7740 0.9650
H 1.9231 2.0560 -1.2061
H 2.8075 1.0913 0.0526
H 1.5394 2.2975 0.5481
H 1.0507 -0.0425 -2.4312
H 0.5876 -1.4611 -1.4032
H 2.2675 -0.7874 -1.3129
H 0.3054 -3.0756 0.8880
H 1.4397 -2.8343 0.2190
27
Frame 21
C 1.1924 -0.5117 -1.4333
C 0.7578 0.4617 -0.3528
C -1.6590 -0.0351 -0.8648
C -0.8249 0.0296 1.4386
C -1.7511 -0.7848 0.4738
C 0.5623 -0.2118 0.9790
C -0.6546 1.0968 -0.5851
H -2.6518 0.3992 -1.1440
H -1.4281 -1.8476 0.3915
O 0.7734 -2.5261 0.7711
H -0.6510 1.9193 -1.3261
C 1.8199 1.5502 -0.2162
H -1.3364 -0.6995 -1.7002
H -1.0381 -0.1325 2.5149
H -2.7868 -0.7606 0.8920
H 1.3572 -0.6364 1.5681
H -0.4095 2.2452 1.3406
C -1.0549 1.4742 0.8675
H -2.1222 1.7786 0.9628
H 1.9253 2.0669 -1.2028
H 2.8056 1.1034 0.0598
H 1.5348 2.3095 0.5500
H 1.0427 -0.0351 -2.4323
H 0.5987 -1.4550 -1.3959
H 2.2731 -0.7661 -1.3186
H 0.3261 -3.1305 0.9752
H 1.3989 -2.9019 0.1873
27
Frame 22
C 1.1950 -0.5001 -1.4339
C 0.7577 0.4729 -0.3535
C -1.6565 -0.0282 -0.8668
C -0.8217 0.0398 1.4376
C -1.7437 -0.7809 0.4702
C 0.5611 -0.2075 0.9729
C -0.6553 1.1066 -0.5865
H -2.6512 0.4031 -1.1439
H -1.4105 -1.8411 0.3863
O 0.7626 -2.5638 0.7568
H -0.6527 1.9292 -1.3272
C 1.8188 1.5619 -0.2128
H -1.3321 -0.6901 -1.7036
H -1.0353 -0.1239 2.5134
H -2.7787 -0.7644 0.8904
H 1.3508 -0.6732 1.5443
H -0.4147 2.2556 1.3392
C -1.0573 1.4823 0.8659
H -2.1257 1.7832 0.9606
H 1.9275 2.0778 -1.1996
H 2.8036 1.1155 0.0670
H 1.5302 2.3214 0.5518
H 1.0347 -0.0277 -2.4334
H 0.6098 -1.4489 -1.3886
H 2.2786 -0.7448 -1.3244
H 0.3469 -3.1854 1.0623
H 1.3581 -2.9695 0.1555
27
Frame 23
C 1.1975 -0.4885 -1.4345
C 0.7576 0.4842 -0.3542
C -1.6540 -0.0213 -0.8689
C -0.8185 0.0501 1.4365
C -1.7363 -0.7771 0.4666
C 0.5598 -0.2032 0.9669
C -0.6559 1.1163 -0.5878
H -2.6505 0.4069 -1.1438
H -1.3930 -1.8346 0.3811
O 0.7518 -2.6015 0.7425
H -0.6545 1.9391 -1.3283
C 1.8178 1.5736 -0.2094
H -1.3278 -0.6808 -1.7071
H -1.0325 -0.1153 2.5120
H -2.7706 -0.7682 0.8887
H 1.3444 -0.7101 1.5205
H -0.4200 2.2661 1.3378
C -1.0597 1.4904 0.8644
H -2.1292 1.7879 0.9583
H 1.9297 2.0887 -1.1963
H 2.8016 1.1276 0.0742
H 1.5256 2.3334 0.5536
H 1.0267 -0.0203 -2.4344
H 0.6209 -1.4428 -1.3813
H 2.2842 -0.7234 -1.3302
H 0.3677 -3.2403 1.1495
H 1.3173 -3.0371 0.1237
27
Frame 24
C 1.2001 -0.4770 -1.4352
C 0.7575 0.4954 -0.3548
C -1.6514 -0.0145 -0.8709
C -0.8153 0.0603 1.4355
C -1.7290 -0.7732 0.4630
C 0.5586 -0.1989 0.9608
C -0.6566 1.1261 -0.5892
H -2.6499 0.4108 -1.1436
H -1.3754 -1.8280 0.3758
O 0.7411 -2.6392 0.7281
H -0.6562 1.9490 -1.3295
C 1.8167 1.5854 -0.2061
H -1.3235 -0.6714 -1.7105
H -1.0298 -0.1067 2.5105
H -2.7625 -0.7719 0.8871
H 1.3379 -0.7469 1.4966
H -0.4252 2.2765 1.3363
C -1.0622 1.4985 0.8628
H -2.1328 1.7925 0.9561
H 1.9319 2.0997 -1.1931
H 2.7997 1.1397 0.0814
H 1.5210 2.3453 0.5555
H 1.0186 -0.0128 -2.4355
H 0.6320 -1.4367 -1.3740
H 2.2897 -0.7021 -1.3359
H 0.3884 -3.2951 1.2366
H 1.2765 -3.1047 0.0920
27
Frame 25
C 1.2027 -0.4654 -1.4358
C 0.7574 0.5067 -0.3555
C -1.6489 -0.0076 -0.8729
C -0.8121 0.0705 1.4345
C -1.7216 -0.7694 0.4594
C 0.5574 -0.1946 0.9548
C -0.6573 1.1359 -0.5905
H -2.6493 0.4146 -1.1435
H -1.3579 -1.8215 0.3706
O 0.7303 -2.6769 0.7138
H -0.6580 1.9589 -1.3306
C 1.8156 1.5971 -0.2027
H -1.3192 -0.6621 -1.7140
H -1.0270 -0.0981 2.5091
H -2.7544 -0.7757 0.8855
H 1.3315 -0.7837 1.4728
H -0.4305 2.2870 1.3349
C -1.0646 1.5066 0.8612
H -2.1363 1.7971 0.9539
H 1.9341 2.1106 -1.1898
H 2.7977 1.1518 0.0886
H 1.5164 2.3573 0.5573
H 1.0106 -0.0054 -2.4366
H 0.6431 -1.4306 -1.3667
H 2.2953 -0.6808 -1.3417
H 0.4092 -3.3500 1.3238
H 1.2357 -3.1723 0.0602
