5
Frame 1
N 0.7203 -0.0033 0.1780
N 1.8185 -0.0081 0.4483
C -0.5234 0.0024 -0.1285
H -1.0059 0.9476 -0.2396
H -1.0096 -0.9386 -0.2582
5
Frame 2
N 0.7325 -0.0033 0.1809
N 1.8294 -0.0081 0.4512
C -0.5367 0.0025 -0.1323
H -1.0107 0.9532 -0.2406
H -1.0145 -0.9441 -0.2592
5
Frame 3
N 0.7447 -0.0034 0.1838
N 1.8403 -0.0081 0.4540
C -0.5500 0.0025 -0.1360
H -1.0155 0.9588 -0.2415
H -1.0195 -0.9497 -0.2603
5
Frame 4
N 0.7564 -0.0034 0.1867
N 1.8508 -0.0082 0.4567
C -0.5637 0.0025 -0.1402
H -1.0199 0.9647 -0.2422
H -1.0238 -0.9555 -0.2611
5
Frame 5
N 0.7682 -0.0034 0.1896
N 1.8613 -0.0084 0.4594
C -0.5773 0.0026 -0.1443
H -1.0242 0.9706 -0.2429
H -1.0281 -0.9614 -0.2619
5
Frame 6
N 0.7681 -0.0034 0.1912
N 1.8603 -0.0084 0.4632
C -0.5734 0.0029 -0.1776
H -1.0256 0.9653 -0.2290
H -1.0295 -0.9563 -0.2478
5
Frame 7
N 0.7681 -0.0035 0.1927
N 1.8593 -0.0085 0.4670
C -0.5695 0.0033 -0.2110
H -1.0270 0.9599 -0.2151
H -1.0309 -0.9513 -0.2337
5
Frame 8
N 0.7680 -0.0035 0.1943
N 1.8583 -0.0085 0.4708
C -0.5656 0.0036 -0.2443
H -1.0284 0.9546 -0.2012
H -1.0323 -0.9462 -0.2196
5
Frame 9
N 0.7679 -0.0035 0.1959
N 1.8572 -0.0086 0.4746
C -0.5616 0.0039 -0.2776
H -1.0299 0.9493 -0.1873
H -1.0337 -0.9411 -0.2056
5
Frame 10
N 0.7678 -0.0035 0.1975
N 1.8562 -0.0086 0.4784
C -0.5577 0.0042 -0.3109
H -1.0313 0.9440 -0.1734
H -1.0351 -0.9360 -0.1915
5
Frame 11
N 0.7678 -0.0036 0.1990
N 1.8552 -0.0087 0.4822
C -0.5538 0.0046 -0.3443
H -1.0327 0.9386 -0.1595
H -1.0365 -0.9310 -0.1774
5
Frame 12
N 0.7677 -0.0036 0.2006
N 1.8542 -0.0087 0.4860
C -0.5499 0.0049 -0.3776
H -1.0341 0.9333 -0.1456
H -1.0379 -0.9259 -0.1633
5
Frame 13
N 0.7761 -0.0037 0.2126
N 1.8595 -0.0087 0.5003
C -0.5613 0.0055 -0.4476
H -1.0352 0.9137 -0.1240
H -1.0391 -0.9067 -0.1413
5
Frame 14
N 0.7876 -0.0039 0.2268
N 1.8687 -0.0089 0.5134
C -0.5765 0.0060 -0.4967
H -1.0380 0.8994 -0.1132
H -1.0418 -0.8926 -0.1302
5
Frame 15
N 0.8014 -0.0040 0.2422
N 1.8805 -0.0092 0.5262
C -0.5935 0.0065 -0.5349
H -1.0426 0.8888 -0.1084
H -1.0459 -0.8821 -0.1251
5
Frame 16
N 0.8170 -0.0042 0.2584
N 1.8944 -0.0092 0.5390
C -0.6113 0.0067 -0.5663
H -1.0482 0.8811 -0.1072
H -1.0519 -0.8744 -0.1239
5
Frame 17
N 0.8342 -0.0044 0.2747
N 1.9097 -0.0094 0.5523
C -0.6299 0.0070 -0.5933
H -1.0551 0.8755 -0.1085
H -1.0589 -0.8687 -0.1251
5
Frame 18
N 0.8525 -0.0046 0.2914
N 1.9263 -0.0095 0.5657
C -0.6487 0.0073 -0.6170
H -1.0632 0.8716 -0.1118
H -1.0669 -0.8647 -0.1283
5
Frame 19
N 0.8718 -0.0048 0.3084
N 1.9439 -0.0097 0.5793
C -0.6676 0.0075 -0.6384
H -1.0722 0.8689 -0.1164
H -1.0760 -0.8619 -0.1329
5
Frame 20
N 0.8921 -0.0050 0.3254
N 1.9623 -0.0099 0.5933
C -0.6865 0.0077 -0.6580
H -1.0821 0.8671 -0.1221
H -1.0858 -0.8599 -0.1385
5
Frame 21
N 0.9131 -0.0052 0.3425
N 1.9814 -0.0100 0.6074
C -0.7054 0.0080 -0.6764
H -1.0927 0.8659 -0.1286
H -1.0964 -0.8586 -0.1450
5
Frame 22
N 0.9348 -0.0055 0.3596
N 2.0012 -0.0102 0.6218
C -0.7243 0.0082 -0.6936
H -1.1040 0.8653 -0.1357
H -1.1077 -0.8578 -0.1521
5
Frame 23
N 0.9571 -0.0057 0.3767
N 2.0214 -0.0104 0.6365
C -0.7431 0.0084 -0.7101
H -1.1158 0.8651 -0.1433
H -1.1196 -0.8574 -0.1598
5
Frame 24
N 0.9799 -0.0059 0.3937
N 2.0421 -0.0105 0.6514
C -0.7618 0.0086 -0.7259
H -1.1282 0.8652 -0.1514
H -1.1320 -0.8573 -0.1678
5
Frame 25
N 1.0031 -0.0061 0.4105
N 2.0632 -0.0107 0.6667
C -0.7804 0.0087 -0.7412
H -1.1411 0.8655 -0.1597
H -1.1448 -0.8574 -0.1762
5
Frame 26
N 1.0269 -0.0064 0.4271
N 2.0846 -0.0109 0.6822
C -0.7990 0.0089 -0.7561
H -1.1543 0.8660 -0.1683
H -1.1581 -0.8577 -0.1848
5
Frame 27
N 1.0510 -0.0067 0.4435
N 2.1062 -0.0110 0.6980
C -0.8175 0.0091 -0.7706
H -1.1679 0.8667 -0.1772
H -1.1718 -0.8581 -0.1937
5
Frame 28
N 1.0759 -0.0070 0.4598
N 2.1286 -0.0111 0.7141
C -0.8358 0.0093 -0.7845
H -1.1823 0.8675 -0.1864
H -1.1864 -0.8587 -0.2030
