12
Frame 1
C -0.7419 1.3910 -0.1887
C 0.0050 0.2262 0.3997
C 1.4139 0.0736 -0.1864
C -0.9049 -0.9692 -0.0623
H 0.0360 0.2153 1.4856
H 2.0405 0.9122 0.0959
H 1.3571 0.0457 -1.2676
H 1.8848 -0.8370 0.1697
H -1.5705 1.6303 0.4977
H -0.4101 -1.8953 0.2026
H -1.0412 -0.9471 -1.1366
H -1.8736 -0.9449 0.4219
12
Frame 2
C -0.7407 1.3878 -0.1942
C 0.0064 0.2264 0.4002
C 1.4169 0.0733 -0.1813
C -0.9089 -0.9661 -0.0620
H 0.0344 0.2181 1.4860
H 2.0388 0.9178 0.0933
H 1.3633 0.0334 -1.2625
H 1.8908 -0.8313 0.1859
H -1.5820 1.6167 0.4803
H -0.3812 -1.8935 0.1215
H -1.1173 -0.8972 -1.1234
H -1.8429 -0.9829 0.4854
12
Frame 3
C -0.7404 1.3829 -0.2007
C 0.0085 0.2270 0.4012
C 1.4204 0.0733 -0.1762
C -0.9133 -0.9623 -0.0616
H 0.0339 0.2218 1.4868
H 2.0400 0.9201 0.0965
H 1.3701 0.0284 -1.2573
H 1.8946 -0.8290 0.1965
H -1.5913 1.6043 0.4642
H -0.3589 -1.8868 0.0384
H -1.1939 -0.8482 -1.1031
H -1.8080 -1.0229 0.5442
12
Frame 4
C -0.7406 1.3773 -0.2077
C 0.0109 0.2280 0.4024
C 1.4239 0.0732 -0.1710
C -0.9177 -0.9584 -0.0610
H 0.0339 0.2264 1.4878
H 2.0426 0.9205 0.1022
H 1.3767 0.0267 -1.2523
H 1.8972 -0.8284 0.2045
H -1.5991 1.5929 0.4493
H -0.3426 -1.8751 -0.0468
H -1.2692 -0.8014 -1.0760
H -1.7696 -1.0645 0.5972
12
Frame 5
C -0.7414 1.3712 -0.2150
C 0.0135 0.2292 0.4038
C 1.4275 0.0730 -0.1658
C -0.9220 -0.9543 -0.0606
H 0.0343 0.2314 1.4889
H 2.0462 0.9200 0.1091
H 1.3834 0.0262 -1.2471
H 1.8990 -0.8289 0.2115
H -1.6038 1.5850 0.4375
H -0.3315 -1.8585 -0.1322
H -1.3433 -0.7569 -1.0424
H -1.7270 -1.1092 0.6447
12
Frame 6
C -0.7428 1.3644 -0.2226
C 0.0163 0.2308 0.4053
C 1.4313 0.0726 -0.1605
C -0.9262 -0.9500 -0.0602
H 0.0348 0.2370 1.4901
H 2.0502 0.9188 0.1163
H 1.3899 0.0261 -1.2419
H 1.9006 -0.8298 0.2182
H -1.6073 1.5778 0.4272
H -0.3268 -1.8366 -0.2179
H -1.4150 -0.7150 -1.0028
H -1.6815 -1.1544 0.6853
12
Frame 7
C -0.7453 1.3556 -0.2303
C 0.0198 0.2327 0.4073
C 1.4355 0.0721 -0.1552
C -0.9306 -0.9442 -0.0604
H 0.0360 0.2425 1.4918
H 2.0549 0.9177 0.1227
H 1.3965 0.0250 -1.2366
H 1.9029 -0.8306 0.2253
H -1.6088 1.5716 0.4199
H -0.3282 -1.8094 -0.3023
H -1.4833 -0.6746 -0.9584
H -1.6343 -1.1990 0.7190
12
Frame 8
C -0.7499 1.3427 -0.2379
C 0.0252 0.2349 0.4102
C 1.4413 0.0717 -0.1501
C -0.9362 -0.9354 -0.0612
H 0.0390 0.2474 1.4942
H 2.0604 0.9180 0.1265
H 1.4036 0.0217 -1.2314
H 1.9081 -0.8298 0.2337
H -1.6116 1.5601 0.4141
H -0.3391 -1.7779 -0.3812
H -1.5444 -0.6334 -0.9131
H -1.5914 -1.2357 0.7432
12
Frame 9
C -0.7576 1.3236 -0.2446
C 0.0335 0.2372 0.4147
C 1.4490 0.0717 -0.1459
C -0.9434 -0.9218 -0.0632
H 0.0450 0.2503 1.4983
H 2.0668 0.9207 0.1255
H 1.4108 0.0154 -1.2268
H 1.9177 -0.8267 0.2431
H -1.6166 1.5408 0.4107
H -0.3584 -1.7455 -0.4470
H -1.5916 -0.5896 -0.8750
H -1.5616 -1.2565 0.7564
12
Frame 10
C -0.7673 1.2995 -0.2501
C 0.0438 0.2395 0.4208
C 1.4577 0.0720 -0.1428
C -0.9516 -0.9043 -0.0659
H 0.0531 0.2514 1.5039
H 2.0737 0.9251 0.1202
H 1.4166 0.0076 -1.2231
H 1.9307 -0.8217 0.2516
H -1.6246 1.5135 0.4079
H -0.3822 -1.7156 -0.4953
H -1.6216 -0.5450 -0.8500
H -1.5490 -1.2595 0.7598
12
Frame 11
C -0.7779 1.2731 -0.2547
C 0.0549 0.2413 0.4280
C 1.4662 0.0725 -0.1409
C -0.9591 -0.8846 -0.0690
H 0.0621 0.2519 1.5106
H 2.0802 0.9298 0.1127
H 1.4198 0.0004 -1.2204
H 1.9447 -0.8165 0.2575
H -1.6340 1.4832 0.4056
H -0.4060 -1.6891 -0.5302
H -1.6371 -0.5001 -0.8364
H -1.5494 -1.2499 0.7568
12
Frame 12
C -0.7892 1.2464 -0.2592
C 0.0654 0.2414 0.4358
C 1.4736 0.0726 -0.1396
C -0.9644 -0.8636 -0.0712
H 0.0711 0.2529 1.5177
H 2.0851 0.9345 0.1048
H 1.4209 -0.0055 -1.2184
H 1.9590 -0.8117 0.2605
H -1.6437 1.4532 0.4033
H -0.4296 -1.6640 -0.5590
H -1.6412 -0.4525 -0.8293
H -1.5578 -1.2336 0.7495
12
Frame 13
C -0.8014 1.2209 -0.2643
C 0.0749 0.2388 0.4437
C 1.4799 0.0724 -0.1389
C -0.9665 -0.8417 -0.0718
H 0.0799 0.2556 1.5248
H 2.0879 0.9388 0.0978
H 1.4206 -0.0097 -1.2170
H 1.9731 -0.8077 0.2610
H -1.6531 1.4260 0.4016
H -0.4541 -1.6392 -0.5864
H -1.6348 -0.3997 -0.8258
H -1.5723 -1.2134 0.7381
12
Frame 14
C -0.8145 1.1971 -0.2701
C 0.0834 0.2336 0.4512
C 1.4848 0.0719 -0.1384
C -0.9656 -0.8201 -0.0704
H 0.0885 0.2611 1.5313
H 2.0888 0.9427 0.0922
H 1.4198 -0.0126 -1.2160
H 1.9861 -0.8043 0.2600
H -1.6612 1.4034 0.4009
H -0.4803 -1.6137 -0.6153
H -1.6182 -0.3408 -0.8245
H -1.5920 -1.1911 0.7229
12
Frame 15
C -0.8280 1.1751 -0.2760
C 0.0910 0.2266 0.4579
C 1.4885 0.0714 -0.1381
C -0.9622 -0.7999 -0.0672
H 0.0965 0.2696 1.5366
H 2.0884 0.9461 0.0881
H 1.4191 -0.0147 -1.2154
H 1.9969 -0.8017 0.2584
H -1.6676 1.3870 0.4009
H -0.5081 -1.5866 -0.6469
H -1.5922 -0.2760 -0.8258
H -1.6153 -1.1677 0.7047
12
Frame 16
C -0.8413 1.1544 -0.2815
C 0.0977 0.2188 0.4631
C 1.4911 0.0710 -0.1379
C -0.9573 -0.7821 -0.0620
H 0.1031 0.2809 1.5399
H 2.0872 0.9489 0.0852
H 1.4189 -0.0162 -1.2150
H 2.0050 -0.7996 0.2570
H -1.6721 1.3777 0.4008
H -0.5374 -1.5570 -0.6815
H -1.5569 -0.2043 -0.8313
H -1.6397 -1.1439 0.6852
12
Frame 17
C -0.8538 1.1353 -0.2861
C 0.1030 0.2115 0.4666
C 1.4928 0.0707 -0.1378
C -0.9515 -0.7681 -0.0551
H 0.1073 0.2936 1.5410
H 2.0858 0.9511 0.0832
H 1.4191 -0.0174 -1.2148
H 2.0104 -0.7983 0.2560
H -1.6746 1.3760 0.3998
H -0.5668 -1.5253 -0.7168
H -1.5146 -0.1196 -0.8471
H -1.6614 -1.1221 0.6680
12
Frame 18
C -0.8646 1.1187 -0.2894
C 0.1066 0.2055 0.4682
C 1.4938 0.0706 -0.1377
C -0.9455 -0.7594 -0.0465
H 0.1091 0.3057 1.5400
H 2.0847 0.9526 0.0818
H 1.4195 -0.0184 -1.2147
H 2.0137 -0.7974 0.2555
H -1.6752 1.3803 0.3974
H -0.5929 -1.4950 -0.7483
H -1.4756 -0.0161 -0.8818
H -1.6770 -1.1057 0.6565
12
Frame 19
C -0.8730 1.1056 -0.2910
C 0.1085 0.2014 0.4678
C 1.4945 0.0705 -0.1377
C -0.9402 -0.7566 -0.0372
H 0.1085 0.3169 1.5375
H 2.0841 0.9534 0.0811
H 1.4202 -0.0193 -1.2146
H 2.0150 -0.7972 0.2554
H -1.6745 1.3890 0.3929
H -0.6123 -1.4700 -0.7706
H -1.4449 0.1036 -0.9372
H -1.6839 -1.0980 0.6535
12
Frame 20
C -0.8814 1.0925 -0.2926
C 0.1105 0.1972 0.4675
C 1.4951 0.0704 -0.1376
C -0.9348 -0.7538 -0.0279
H 0.1079 0.3280 1.5351
H 2.0834 0.9543 0.0805
H 1.4209 -0.0202 -1.2146
H 2.0163 -0.7969 0.2553
H -1.6738 1.3977 0.3885
H -0.6317 -1.4450 -0.7929
H -1.4143 0.2233 -0.9926
H -1.6907 -1.0904 0.6504
12
Frame 21
C -0.8888 1.0805 -0.2927
C 0.1120 0.1941 0.4662
C 1.4957 0.0704 -0.1376
C -0.9307 -0.7528 -0.0190
H 0.1065 0.3397 1.5319
H 2.0831 0.9548 0.0801
H 1.4219 -0.0213 -1.2146
H 2.0168 -0.7968 0.2553
H -1.6734 1.4090 0.3811
H -0.6479 -1.4229 -0.8097
H -1.3828 0.3450 -1.0567
H -1.6923 -1.0882 0.6525
12
Frame 22
C -0.8961 1.0679 -0.2917
C 0.1135 0.1915 0.4645
C 1.4963 0.0704 -0.1376
C -0.9275 -0.7514 -0.0106
H 0.1057 0.3520 1.5281
H 2.0831 0.9553 0.0797
H 1.4232 -0.0227 -1.2147
H 2.0173 -0.7968 0.2554
H -1.6740 1.4217 0.3714
H -0.6636 -1.4015 -0.8243
H -1.3468 0.4637 -1.1242
H -1.6916 -1.0883 0.6565
12
Frame 23
C -0.9034 1.0539 -0.2895
C 0.1154 0.1898 0.4626
C 1.4972 0.0704 -0.1377
C -0.9255 -0.7489 -0.0032
H 0.1057 0.3644 1.5241
H 2.0834 0.9557 0.0792
H 1.4248 -0.0245 -1.2147
H 2.0179 -0.7967 0.2555
H -1.6751 1.4357 0.3594
H -0.6793 -1.3807 -0.8366
H -1.3039 0.5786 -1.1915
H -1.6888 -1.0902 0.6624
12
Frame 24
C -0.9112 1.0376 -0.2866
C 0.1178 0.1891 0.4607
C 1.4982 0.0704 -0.1378
C -0.9249 -0.7448 0.0028
H 0.1073 0.3762 1.5202
H 2.0841 0.9560 0.0786
H 1.4268 -0.0266 -1.2149
H 2.0186 -0.7965 0.2558
H -1.6761 1.4509 0.3459
H -0.6945 -1.3613 -0.8463
H -1.2519 0.6902 -1.2520
H -1.6839 -1.0934 0.6699
12
Frame 25
C -0.9195 1.0187 -0.2836
C 0.1207 0.1898 0.4591
C 1.4995 0.0704 -0.1382
C -0.9261 -0.7389 0.0071
H 0.1107 0.3863 1.5170
H 2.0856 0.9562 0.0777
H 1.4293 -0.0290 -1.2153
H 2.0194 -0.7963 0.2562
H -1.6758 1.4665 0.3320
H -0.7090 -1.3438 -0.8536
H -1.1902 0.7976 -1.2995
H -1.6772 -1.0970 0.6785
12
Frame 26
C -0.9283 0.9972 -0.2810
C 0.1243 0.1920 0.4582
C 1.5010 0.0705 -0.1387
C -0.9289 -0.7309 0.0095
H 0.1162 0.3942 1.5149
H 2.0879 0.9561 0.0764
H 1.4321 -0.0317 -1.2158
H 2.0204 -0.7959 0.2568
H -1.6735 1.4814 0.3186
H -0.7223 -1.3287 -0.8583
H -1.1205 0.8986 -1.3305
H -1.6693 -1.1002 0.6874
12
Frame 27
C -0.9377 0.9733 -0.2788
C 0.1286 0.1954 0.4583
C 1.5029 0.0707 -0.1395
C -0.9334 -0.7205 0.0100
H 0.1238 0.3999 1.5143
H 2.0914 0.9557 0.0744
H 1.4354 -0.0346 -1.2166
H 2.0215 -0.7954 0.2576
H -1.6688 1.4938 0.3067
H -0.7340 -1.3162 -0.8608
H -1.0457 0.9895 -1.3442
H -1.6609 -1.1018 0.6961
12
Frame 28
C -0.9473 0.9473 -0.2774
C 0.1336 0.1999 0.4598
C 1.5053 0.0712 -0.1407
C -0.9396 -0.7074 0.0083
H 0.1333 0.4034 1.5157
H 2.0966 0.9550 0.0715
H 1.4388 -0.0378 -1.2177
H 2.0228 -0.7947 0.2585
H -1.6626 1.5015 0.2969
H -0.7441 -1.3063 -0.8610
H -0.9699 1.0671 -1.3417
H -1.6532 -1.1000 0.7035
12
Frame 29
C -0.9568 0.9195 -0.2764
C 0.1395 0.2048 0.4633
C 1.5085 0.0719 -0.1424
C -0.9473 -0.6915 0.0044
H 0.1446 0.4049 1.5194
H 2.1036 0.9540 0.0669
H 1.4420 -0.0413 -1.2190
H 2.0247 -0.7938 0.2592
H -1.6572 1.5016 0.2892
H -0.7524 -1.2988 -0.8589
H -0.8981 1.1274 -1.3265
H -1.6483 -1.0927 0.7085
12
Frame 30
C -0.9657 0.8909 -0.2759
C 0.1465 0.2097 0.4697
C 1.5127 0.0731 -0.1446
C -0.9565 -0.6729 -0.0018
H 0.1570 0.4047 1.5261
H 2.1131 0.9531 0.0595
H 1.4439 -0.0453 -1.2207
H 2.0283 -0.7923 0.2589
H -1.6562 1.4914 0.2830
H -0.7592 -1.2938 -0.8546
H -0.8366 1.1669 -1.3042
H -1.6492 -1.0768 0.7094
12
Frame 31
C -0.9729 0.8640 -0.2758
C 0.1547 0.2133 0.4808
C 1.5190 0.0750 -0.1479
C -0.9675 -0.6533 -0.0102
H 0.1694 0.4024 1.5377
H 2.1244 0.9542 0.0459
H 1.4415 -0.0503 -1.2227
H 2.0373 -0.7888 0.2555
H -1.6652 1.4693 0.2753
H -0.7659 -1.2918 -0.8485
H -0.7928 1.1836 -1.2837
H -1.6621 -1.0497 0.7037
12
Frame 32
C -0.9698 0.8518 -0.2764
C 0.1590 0.2087 0.4950
C 1.5223 0.0801 -0.1523
C -0.9782 -0.6435 -0.0168
H 0.1754 0.3922 1.5525
H 2.1130 0.9763 0.0060
H 1.4270 -0.0748 -1.2218
H 2.0671 -0.7622 0.2616
H -1.6733 1.4552 0.2625
H -0.7746 -1.2950 -0.8442
H -0.7623 1.1848 -1.2746
H -1.6876 -1.0235 0.6915
