17
Frame 1
C -0.7236 -1.3764 -0.2953
C -0.0543 -0.0020 -0.0624
C 0.1846 0.2493 1.4115
C -0.9535 1.1130 -0.6662
H 1.2893 -0.0606 -1.6602
H -1.8948 1.1387 -0.1200
H -1.1777 0.9368 -1.7128
H -0.4831 2.0850 -0.5720
H -1.6751 -1.4073 0.2329
H -0.1012 -2.1776 0.0861
H -0.9177 -1.5611 -1.3466
H 0.8204 -0.5225 1.8289
H -0.7505 0.2559 1.9719
H 0.6691 1.2075 1.5591
C 1.8536 0.0039 -0.7567
H 2.2471 0.9497 -0.4331
H 2.2758 -0.8808 -0.3173
17
Frame 2
C -0.7228 -1.3761 -0.2953
C -0.0506 -0.0019 -0.0626
C 0.1842 0.2494 1.4123
C -0.9524 1.1128 -0.6662
H 1.3204 -0.0618 -1.6843
H -1.8937 1.1376 -0.1201
H -1.1765 0.9362 -1.7128
H -0.4832 2.0854 -0.5721
H -1.6745 -1.4063 0.2325
H -0.1014 -2.1782 0.0861
H -0.9168 -1.5604 -1.3467
H 0.8202 -0.5223 1.8300
H -0.7508 0.2559 1.9724
H 0.6689 1.2075 1.5600
C 1.8452 0.0039 -0.7543
H 2.2493 0.9491 -0.4397
H 2.2783 -0.8810 -0.3240
17
Frame 3
C -0.7198 -1.3752 -0.2954
C -0.0376 -0.0017 -0.0645
C 0.1835 0.2495 1.4148
C -0.9484 1.1119 -0.6663
H 1.4121 -0.0645 -1.7394
H -1.8893 1.1331 -0.1200
H -1.1720 0.9342 -1.7127
H -0.4833 2.0866 -0.5726
H -1.6718 -1.4018 0.2313
H -0.1021 -2.1801 0.0861
H -0.9132 -1.5580 -1.3470
H 0.8195 -0.5215 1.8344
H -0.7525 0.2556 1.9718
H 0.6683 1.2077 1.5637
C 1.8167 0.0038 -0.7478
H 2.2524 0.9448 -0.4552
H 2.2823 -0.8783 -0.3403
17
Frame 4
C -0.7159 -1.3739 -0.2957
C -0.0224 -0.0014 -0.0681
C 0.1834 0.2497 1.4174
C -0.9433 1.1107 -0.6665
H 1.4950 -0.0662 -1.7769
H -1.8835 1.1269 -0.1194
H -1.1663 0.9318 -1.7127
H -0.4830 2.0879 -0.5732
H -1.6680 -1.3953 0.2303
H -0.1027 -2.1823 0.0862
H -0.9089 -1.5554 -1.3475
H 0.8187 -0.5206 1.8402
H -0.7552 0.2546 1.9681
H 0.6674 1.2081 1.5688
C 1.7849 0.0035 -0.7421
H 2.2487 0.9384 -0.4643
H 2.2796 -0.8729 -0.3502
17
Frame 5
C -0.7109 -1.3723 -0.2962
C -0.0053 -0.0013 -0.0731
C 0.1842 0.2498 1.4198
C -0.9369 1.1093 -0.6669
H 1.5603 -0.0673 -1.7980
H -1.8759 1.1189 -0.1184
H -1.1596 0.9294 -1.7129
H -0.4823 2.0892 -0.5737
H -1.6629 -1.3864 0.2294
H -0.1030 -2.1847 0.0862
H -0.9039 -1.5527 -1.3481
H 0.8175 -0.5196 1.8476
H -0.7589 0.2529 1.9611
H 0.6663 1.2087 1.5754
C 1.7505 0.0032 -0.7372
H 2.2358 0.9313 -0.4654
H 2.2678 -0.8657 -0.3518
17
Frame 6
C -0.7046 -1.3703 -0.2969
C 0.0128 -0.0012 -0.0791
C 0.1859 0.2499 1.4217
C -0.9290 1.1074 -0.6675
H 1.6012 -0.0681 -1.8064
H -1.8664 1.1095 -0.1171
H -1.1519 0.9272 -1.7134
H -0.4808 2.0904 -0.5742
H -1.6563 -1.3757 0.2284
H -0.1029 -2.1870 0.0865
H -0.8983 -1.5503 -1.3488
H 0.8162 -0.5186 1.8561
H -0.7633 0.2506 1.9508
H 0.6647 1.2097 1.5831
C 1.7148 0.0028 -0.7325
H 2.2134 0.9252 -0.4593
H 2.2467 -0.8585 -0.3456
17
Frame 7
C -0.6972 -1.3679 -0.2980
C 0.0304 -0.0011 -0.0853
C 0.1884 0.2499 1.4227
C -0.9197 1.1052 -0.6683
H 1.6180 -0.0691 -1.8069
H -1.8557 1.0994 -0.1161
H -1.1431 0.9252 -1.7142
H -0.4781 2.0913 -0.5743
H -1.6485 -1.3640 0.2271
H -0.1019 -2.1887 0.0870
H -0.8920 -1.5484 -1.3497
H 0.8147 -0.5178 1.8648
H -0.7677 0.2478 1.9383
H 0.6630 1.2107 1.5912
C 1.6789 0.0025 -0.7273
H 2.1841 0.9209 -0.4495
H 2.2189 -0.8521 -0.3345
17
Frame 8
C -0.6887 -1.3651 -0.2994
C 0.0463 -0.0010 -0.0910
C 0.1915 0.2497 1.4230
C -0.9091 1.1027 -0.6693
H 1.6153 -0.0706 -1.8031
H -1.8439 1.0895 -0.1160
H -1.1330 0.9235 -1.7154
H -0.4737 2.0916 -0.5740
H -1.6398 -1.3524 0.2252
H -0.0997 -2.1896 0.0878
H -0.8845 -1.5467 -1.3508
H 0.8135 -0.5173 1.8729
H -0.7714 0.2447 1.9249
H 0.6614 1.2117 1.5987
C 1.6431 0.0022 -0.7215
H 2.1512 0.9184 -0.4394
H 2.1879 -0.8469 -0.3222
17
Frame 9
C -0.6790 -1.3620 -0.3010
C 0.0597 -0.0010 -0.0955
C 0.1949 0.2493 1.4226
C -0.8971 1.1000 -0.6707
H 1.5980 -0.0728 -1.7972
H -1.8316 1.0809 -0.1176
H -1.1205 0.9220 -1.7173
H -0.4668 2.0911 -0.5734
H -1.6305 -1.3422 0.2222
H -0.0955 -2.1893 0.0889
H -0.8752 -1.5451 -1.3523
H 0.8127 -0.5170 1.8795
H -0.7741 0.2416 1.9120
H 0.6601 1.2126 1.6050
C 1.6074 0.0021 -0.7152
H 2.1174 0.9173 -0.4320
H 2.1567 -0.8423 -0.3110
17
Frame 10
C -0.6682 -1.3588 -0.3030
C 0.0693 -0.0011 -0.0979
C 0.1984 0.2487 1.4220
C -0.8834 1.0973 -0.6725
H 1.5694 -0.0764 -1.7909
H -1.8192 1.0749 -0.1223
H -1.1039 0.9206 -1.7201
H -0.4561 2.0895 -0.5723
H -1.6208 -1.3350 0.2175
H -0.0884 -2.1874 0.0902
H -0.8624 -1.5434 -1.3545
H 0.8128 -0.5172 1.8843
H -0.7753 0.2387 1.9014
H 0.6596 1.2130 1.6097
C 1.5720 0.0022 -0.7088
H 2.0836 0.9178 -0.4293
H 2.1269 -0.8377 -0.3025
17
Frame 11
C -0.6562 -1.3560 -0.3052
C 0.0736 -0.0011 -0.0968
C 0.2015 0.2480 1.4220
C -0.8680 1.0950 -0.6749
H 1.5314 -0.0821 -1.7856
H -1.8081 1.0739 -0.1323
H -1.0807 0.9195 -1.7244
H -0.4398 2.0866 -0.5707
H -1.6118 -1.3338 0.2096
H -0.0772 -2.1835 0.0917
H -0.8440 -1.5413 -1.3578
H 0.8141 -0.5179 1.8869
H -0.7747 0.2364 1.8959
H 0.6602 1.2129 1.6126
C 1.5377 0.0025 -0.7039
H 2.0507 0.9200 -0.4336
H 2.1002 -0.8324 -0.2975
17
Frame 12
C -0.6438 -1.3552 -0.3073
C 0.0718 -0.0013 -0.0914
C 0.2035 0.2471 1.4242
C -0.8515 1.0946 -0.6783
H 1.4870 -0.0912 -1.7833
H -1.8000 1.0814 -0.1506
H -1.0487 0.9198 -1.7310
H -0.4170 2.0828 -0.5686
H -1.6049 -1.3424 0.1969
H -0.0616 -2.1783 0.0940
H -0.8182 -1.5399 -1.3625
H 0.8166 -0.5190 1.8881
H -0.7723 0.2351 1.8987
H 0.6621 1.2121 1.6146
C 1.5066 0.0030 -0.7024
H 2.0198 0.9251 -0.4480
H 2.0798 -0.8251 -0.2972
17
Frame 13
C -0.6323 -1.3576 -0.3090
C 0.0656 -0.0017 -0.0825
C 0.2038 0.2461 1.4303
C -0.8356 1.0973 -0.6827
H 1.4413 -0.1050 -1.7848
H -1.7963 1.0975 -0.1774
H -1.0091 0.9235 -1.7398
H -0.3901 2.0799 -0.5649
H -1.6015 -1.3608 0.1797
H -0.0440 -2.1735 0.0982
H -0.7860 -1.5411 -1.3677
H 0.8189 -0.5208 1.8904
H -0.7696 0.2349 1.9100
H 0.6646 1.2106 1.6183
C 1.4812 0.0039 -0.7058
H 1.9922 0.9331 -0.4744
H 2.0682 -0.8149 -0.3016
17
Frame 14
C -0.6225 -1.3632 -0.3094
C 0.0588 -0.0022 -0.0732
C 0.2019 0.2446 1.4395
C -0.8210 1.1034 -0.6871
H 1.3987 -0.1264 -1.7892
H -1.7955 1.1161 -0.2092
H -0.9658 0.9339 -1.7493
H -0.3650 2.0794 -0.5559
H -1.6008 -1.3823 0.1601
H -0.0288 -2.1702 0.1079
H -0.7513 -1.5479 -1.3712
H 0.8175 -0.5239 1.8961
H -0.7695 0.2349 1.9231
H 0.6657 1.2079 1.6262
C 1.4613 0.0050 -0.7137
H 1.9663 0.9446 -0.5134
H 2.0663 -0.7990 -0.3067
17
Frame 15
C -0.6155 -1.3684 -0.3069
C 0.0553 -0.0025 -0.0682
C 0.1976 0.2416 1.4460
C -0.8101 1.1106 -0.6883
H 1.3703 -0.1676 -1.7919
H -1.7994 1.1195 -0.2416
H -0.9205 0.9585 -1.7574
H -0.3551 2.0829 -0.5277
H -1.6007 -1.3953 0.1476
H -0.0200 -2.1671 0.1236
H -0.7252 -1.5601 -1.3695
H 0.8035 -0.5342 1.9032
H -0.7756 0.2411 1.9264
H 0.6707 1.1997 1.6361
C 1.4492 0.0060 -0.7235
H 1.9386 0.9624 -0.5692
H 2.0768 -0.7703 -0.2979
