17
Frame 1
C -0.9007 -1.3795 -0.2424
C -0.2511 -0.0006 -0.0354
C 0.0320 0.2506 1.4567
C -1.1400 1.1126 -0.6157
H 0.6866 0.0099 -0.5893
H -2.0981 1.1259 -0.1051
H -1.3173 0.9513 -1.6729
H -0.6750 2.0848 -0.4933
H -1.8543 -1.4215 0.2748
H -0.2683 -2.1707 0.1461
H -1.0739 -1.5689 -1.2957
H 0.6763 -0.5195 1.8681
H -0.8991 0.2449 2.0144
H 0.5095 1.2133 1.6070
C 2.6513 0.0030 -1.0535
H 2.8027 0.8886 -0.4166
H 2.8047 -0.8526 -0.3772
17
Frame 2
C -0.8952 -1.3798 -0.2454
C -0.2454 -0.0009 -0.0404
C 0.0462 0.2502 1.4499
C -1.1350 1.1130 -0.6174
H 0.6889 0.0087 -0.6005
H -2.0910 1.1280 -0.1029
H -1.3168 0.9514 -1.6738
H -0.6681 2.0846 -0.4974
H -1.8465 -1.4227 0.2761
H -0.2605 -2.1709 0.1396
H -1.0729 -1.5684 -1.2981
H 0.6920 -0.5205 1.8579
H -0.8819 0.2452 2.0127
H 0.5251 1.2124 1.5975
C 2.6202 0.0023 -1.0363
H 2.7636 0.8970 -0.4105
H 2.7714 -0.8435 -0.3473
17
Frame 3
C -0.8880 -1.3802 -0.2486
C -0.2392 -0.0010 -0.0443
C 0.0586 0.2500 1.4446
C -1.1286 1.1135 -0.6198
H 0.6923 0.0081 -0.6095
H -2.0834 1.1301 -0.1031
H -1.3129 0.9513 -1.6756
H -0.6600 2.0845 -0.5015
H -1.8378 -1.4246 0.2754
H -0.2513 -2.1708 0.1340
H -1.0680 -1.5679 -1.3010
H 0.7056 -0.5208 1.8501
H -0.8673 0.2456 2.0110
H 0.5386 1.2121 1.5902
C 2.5868 0.0017 -1.0208
H 2.7256 0.9008 -0.4003
H 2.7359 -0.8391 -0.3254
17
Frame 4
C -0.8803 -1.3807 -0.2519
C -0.2330 -0.0011 -0.0476
C 0.0704 0.2500 1.4399
C -1.1215 1.1140 -0.6225
H 0.6960 0.0077 -0.6177
H -2.0754 1.1326 -0.1042
H -1.3076 0.9510 -1.6778
H -0.6511 2.0843 -0.5057
H -1.8290 -1.4269 0.2739
H -0.2416 -2.1706 0.1288
H -1.0620 -1.5675 -1.3040
H 0.7183 -0.5211 1.8431
H -0.8535 0.2460 2.0094
H 0.5512 1.2118 1.5837
C 2.5526 0.0013 -1.0060
H 2.6881 0.9038 -0.3899
H 2.6998 -0.8357 -0.3057
17
Frame 5
C -0.8723 -1.3813 -0.2551
C -0.2269 -0.0013 -0.0506
C 0.0818 0.2499 1.4355
C -1.1140 1.1147 -0.6253
H 0.6995 0.0069 -0.6258
H -2.0671 1.1357 -0.1058
H -1.3016 0.9506 -1.6802
H -0.6413 2.0840 -0.5103
H -1.8202 -1.4296 0.2721
H -0.2317 -2.1704 0.1238
H -1.0551 -1.5671 -1.3072
H 0.7304 -0.5215 1.8368
H -0.8403 0.2469 2.0081
H 0.5638 1.2114 1.5774
C 2.5180 0.0011 -0.9916
H 2.6518 0.9058 -0.3783
H 2.6643 -0.8335 -0.2883
17
Frame 6
C -0.8641 -1.3820 -0.2583
C -0.2210 -0.0014 -0.0533
C 0.0929 0.2499 1.4313
C -1.1062 1.1154 -0.6283
H 0.7026 0.0068 -0.6340
H -2.0588 1.1395 -0.1078
H -1.2951 0.9500 -1.6826
H -0.6309 2.0836 -0.5152
H -1.8112 -1.4328 0.2700
H -0.2213 -2.1701 0.1188
H -1.0476 -1.5668 -1.3104
H 0.7422 -0.5219 1.8308
H -0.8273 0.2477 2.0068
H 0.5759 1.2111 1.5714
C 2.4832 0.0009 -0.9775
H 2.6151 0.9076 -0.3671
H 2.6294 -0.8314 -0.2716
17
Frame 7
C -0.8557 -1.3828 -0.2615
C -0.2153 -0.0016 -0.0556
C 0.1038 0.2499 1.4275
C -1.0980 1.1162 -0.6314
H 0.7056 0.0056 -0.6421
H -2.0498 1.1441 -0.1098
H -1.2883 0.9493 -1.6852
H -0.6196 2.0831 -0.5206
H -1.8021 -1.4365 0.2677
H -0.2105 -2.1698 0.1139
H -1.0396 -1.5665 -1.3137
H 0.7534 -0.5223 1.8253
H -0.8149 0.2488 2.0057
H 0.5879 1.2107 1.5657
C 2.4481 0.0010 -0.9637
H 2.5802 0.9089 -0.3552
H 2.5936 -0.8302 -0.2565
17
Frame 8
C -0.8470 -1.3838 -0.2648
C -0.2098 -0.0017 -0.0578
C 0.1144 0.2499 1.4237
C -1.0897 1.1172 -0.6346
H 0.7078 0.0053 -0.6509
H -2.0409 1.1496 -0.1121
H -1.2813 0.9486 -1.6878
H -0.6075 2.0826 -0.5263
H -1.7928 -1.4409 0.2651
H -0.1992 -2.1694 0.1091
H -1.0309 -1.5664 -1.3171
H 0.7645 -0.5227 1.8197
H -0.8024 0.2498 2.0047
H 0.5997 1.2103 1.5601
C 2.4129 0.0008 -0.9501
H 2.5448 0.9102 -0.3440
H 2.5598 -0.8286 -0.2412
17
Frame 9
C -0.8381 -1.3850 -0.2679
C -0.2046 -0.0019 -0.0597
C 0.1248 0.2499 1.4201
C -1.0810 1.1184 -0.6378
H 0.7095 0.0041 -0.6602
H -2.0316 1.1558 -0.1146
H -1.2739 0.9479 -1.6905
H -0.5947 2.0819 -0.5322
H -1.7835 -1.4457 0.2625
H -0.1875 -2.1688 0.1045
H -1.0218 -1.5665 -1.3204
H 0.7751 -0.5231 1.8146
H -0.7905 0.2510 2.0036
H 0.6113 1.2098 1.5547
C 2.3776 0.0010 -0.9367
H 2.5097 0.9111 -0.3323
H 2.5253 -0.8278 -0.2278
17
Frame 10
C -0.8291 -1.3863 -0.2710
C -0.1995 -0.0022 -0.0615
C 0.1349 0.2499 1.4167
C -1.0721 1.1197 -0.6411
H 0.7106 0.0038 -0.6703
H -2.0221 1.1625 -0.1173
H -1.2661 0.9475 -1.6932
H -0.5812 2.0811 -0.5380
H -1.7740 -1.4509 0.2596
H -0.1756 -2.1682 0.1002
H -1.0122 -1.5669 -1.3236
H 0.7852 -0.5237 1.8097
H -0.7790 0.2521 2.0024
H 0.6226 1.2092 1.5496
C 2.3420 0.0010 -0.9236
H 2.4759 0.9125 -0.3218
H 2.4914 -0.8266 -0.2139
17
Frame 11
C -0.8199 -1.3876 -0.2739
C -0.1943 -0.0025 -0.0632
C 0.1447 0.2498 1.4133
C -1.0629 1.1211 -0.6443
H 0.7113 0.0023 -0.6818
H -2.0124 1.1693 -0.1201
H -1.2579 0.9472 -1.6959
H -0.5674 2.0803 -0.5435
H -1.7645 -1.4560 0.2568
H -0.1634 -2.1675 0.0963
H -1.0022 -1.5674 -1.3268
H 0.7947 -0.5242 1.8053
H -0.7681 0.2532 2.0008
H 0.6333 1.2087 1.5448
C 2.3062 0.0012 -0.9106
H 2.4417 0.9133 -0.3111
H 2.4582 -0.8261 -0.2014
17
Frame 12
C -0.8105 -1.3887 -0.2767
C -0.1888 -0.0028 -0.0649
C 0.1540 0.2497 1.4099
C -1.0534 1.1223 -0.6474
H 0.7112 0.0016 -0.6954
H -2.0024 1.1756 -0.1227
H -1.2493 0.9471 -1.6985
H -0.5535 2.0795 -0.5486
H -1.7548 -1.4604 0.2539
H -0.1515 -2.1666 0.0930
H -0.9919 -1.5681 -1.3297
H 0.8035 -0.5247 1.8016
H -0.7584 0.2541 1.9982
H 0.6433 1.2082 1.5406
C 2.2704 0.0013 -0.8979
H 2.4084 0.9144 -0.3010
H 2.4247 -0.8255 -0.1895
17
Frame 13
C -0.8009 -1.3895 -0.2793
C -0.1825 -0.0031 -0.0667
C 0.1627 0.2495 1.4067
C -1.0437 1.1234 -0.6503
H 0.7110 0.0002 -0.7110
H -1.9920 1.1809 -0.1250
H -1.2406 0.9471 -1.7010
H -0.5399 2.0787 -0.5532
H -1.7452 -1.4636 0.2512
H -0.1400 -2.1658 0.0903
H -0.9815 -1.5689 -1.3324
H 0.8111 -0.5252 1.7988
H -0.7501 0.2548 1.9946
H 0.6522 1.2077 1.5374
C 2.2341 0.0015 -0.8856
H 2.3753 0.9153 -0.2915
H 2.3930 -0.8255 -0.1788
17
Frame 14
C -0.7913 -1.3899 -0.2816
C -0.1753 -0.0034 -0.0687
C 0.1707 0.2493 1.4036
C -1.0336 1.1240 -0.6528
H 0.7102 -0.0013 -0.7304
H -1.9813 1.1847 -0.1267
H -1.2317 0.9471 -1.7031
H -0.5269 2.0778 -0.5571
H -1.7356 -1.4650 0.2487
H -0.1294 -2.1651 0.0882
H -0.9713 -1.5695 -1.3348
H 0.8175 -0.5256 1.7974
H -0.7438 0.2550 1.9891
H 0.6597 1.2074 1.5353
C 2.1978 0.0017 -0.8735
H 2.3431 0.9165 -0.2832
H 2.3603 -0.8253 -0.1689
17
Frame 15
C -0.7818 -1.3897 -0.2838
C -0.1667 -0.0037 -0.0709
C 0.1778 0.2491 1.4008
C -1.0233 1.1241 -0.6551
H 0.7094 -0.0031 -0.7534
H -1.9702 1.1864 -0.1277
H -1.2228 0.9467 -1.7050
H -0.5148 2.0770 -0.5604
H -1.7261 -1.4641 0.2465
H -0.1199 -2.1645 0.0868
H -0.9615 -1.5698 -1.3368
H 0.8224 -0.5258 1.7975
H -0.7395 0.2548 1.9822
H 0.6657 1.2072 1.5347
C 2.1612 0.0019 -0.8619
H 2.3115 0.9176 -0.2758
H 2.3296 -0.8259 -0.1609
17
Frame 16
C -0.7723 -1.3889 -0.2857
C -0.1566 -0.0040 -0.0732
C 0.1838 0.2489 1.3986
C -1.0129 1.1236 -0.6570
H 0.7087 -0.0053 -0.7810
H -1.9588 1.1857 -0.1279
H -1.2141 0.9461 -1.7065
H -0.5039 2.0763 -0.5631
H -1.7169 -1.4607 0.2446
H -0.1118 -2.1643 0.0858
H -0.9523 -1.5697 -1.3386
H 0.8256 -0.5259 1.7994
H -0.7377 0.2542 1.9738
H 0.6699 1.2072 1.5358
C 2.1247 0.0021 -0.8508
H 2.2812 0.9190 -0.2703
H 2.2998 -0.8269 -0.1546
17
Frame 17
C -0.7631 -1.3874 -0.2875
C -0.1448 -0.0042 -0.0757
C 0.1886 0.2488 1.3971
C -1.0024 1.1226 -0.6587
H 0.7087 -0.0081 -0.8141
H -1.9471 1.1825 -0.1272
H -1.2058 0.9450 -1.7078
H -0.4946 2.0759 -0.5654
H -1.7079 -1.4547 0.2429
H -0.1053 -2.1645 0.0852
H -0.9440 -1.5691 -1.3401
H 0.8272 -0.5257 1.8029
H -0.7380 0.2533 1.9645
H 0.6724 1.2073 1.5384
C 2.0882 0.0023 -0.8403
H 2.2530 0.9206 -0.2670
H 2.2723 -0.8288 -0.1511
17
Frame 18
C -0.7543 -1.3855 -0.2892
C -0.1313 -0.0044 -0.0781
C 0.1921 0.2487 1.3964
C -0.9921 1.1210 -0.6603
H 0.7116 -0.0117 -0.8539
H -1.9353 1.1767 -0.1256
H -1.1985 0.9437 -1.7088
H -0.4874 2.0758 -0.5673
H -1.6994 -1.4462 0.2416
H -0.1007 -2.1652 0.0848
H -0.9368 -1.5683 -1.3413
H 0.8273 -0.5253 1.8078
H -0.7402 0.2522 1.9551
H 0.6733 1.2076 1.5424
C 2.0521 0.0024 -0.8302
H 2.2277 0.9229 -0.2671
H 2.2482 -0.8318 -0.1511
17
Frame 19
C -0.7463 -1.3835 -0.2909
C -0.1162 -0.0045 -0.0803
C 0.1940 0.2487 1.3971
C -0.9826 1.1193 -0.6618
H 0.7210 -0.0166 -0.9056
H -1.9240 1.1688 -0.1231
H -1.1930 0.9425 -1.7097
H -0.4827 2.0766 -0.5692
H -1.6916 -1.4361 0.2405
H -0.0982 -2.1669 0.0846
H -0.9314 -1.5674 -1.3425
H 0.8264 -0.5247 1.8132
H -0.7435 0.2514 1.9479
H 0.6731 1.2079 1.5470
C 2.0170 0.0026 -0.8201
H 2.2096 0.9264 -0.2732
H 2.2318 -0.8369 -0.1576
17
Frame 20
C -0.7361 -1.3806 -0.2934
C -0.0948 -0.0040 -0.0771
C 0.1931 0.2489 1.4005
C -0.9701 1.1168 -0.6642
H 0.8152 -0.0299 -1.0897
H -1.9096 1.1551 -0.1193
H -1.1881 0.9415 -1.7112
H -0.4806 2.0790 -0.5710
H -1.6827 -1.4210 0.2391
H -0.0977 -2.1701 0.0846
H -0.9266 -1.5666 -1.3440
H 0.8241 -0.5238 1.8191
H -0.7483 0.2520 1.9487
H 0.6718 1.2076 1.5519
C 1.9641 0.0030 -0.8012
H 2.2059 0.9363 -0.3085
H 2.2306 -0.8520 -0.1927
17
Frame 21
C -0.7335 -1.3797 -0.2941
C -0.0895 -0.0036 -0.0726
C 0.1916 0.2489 1.4021
C -0.9667 1.1160 -0.6649
H 0.8909 -0.0362 -1.2029
H -1.9064 1.1513 -0.1187
H -1.1872 0.9412 -1.7118
H -0.4810 2.0801 -0.5710
H -1.6811 -1.4176 0.2383
H -0.0982 -2.1712 0.0849
H -0.9257 -1.5664 -1.3446
H 0.8232 -0.5237 1.8202
H -0.7492 0.2529 1.9534
H 0.6712 1.2075 1.5526
C 1.9465 0.0032 -0.7934
H 2.2121 0.9406 -0.3300
H 2.2372 -0.8591 -0.2137
17
Frame 22
C -0.7313 -1.3790 -0.2945
C -0.0843 -0.0032 -0.0685
C 0.1900 0.2490 1.4038
C -0.9639 1.1154 -0.6653
H 0.9699 -0.0424 -1.3158
H -1.9040 1.1485 -0.1187
H -1.1861 0.9408 -1.7122
H -0.4815 2.0811 -0.5711
H -1.6800 -1.4153 0.2373
H -0.0988 -2.1723 0.0852
H -0.9247 -1.5660 -1.3451
H 0.8225 -0.5236 1.8213
H -0.7496 0.2538 1.9586
H 0.6707 1.2075 1.5534
C 1.9299 0.0034 -0.7855
H 2.2188 0.9445 -0.3523
H 2.2445 -0.8658 -0.2358
17
Frame 23
C -0.7293 -1.3783 -0.2948
C -0.0782 -0.0029 -0.0652
C 0.1884 0.2490 1.4056
C -0.9612 1.1148 -0.6657
H 1.0513 -0.0483 -1.4243
H -1.9018 1.1461 -0.1190
H -1.1848 0.9401 -1.7126
H -0.4821 2.0822 -0.5712
H -1.6790 -1.4134 0.2362
H -0.0994 -2.1736 0.0855
H -0.9235 -1.5652 -1.3456
H 0.8219 -0.5235 1.8227
H -0.7497 0.2547 1.9635
H 0.6702 1.2075 1.5543
C 1.9123 0.0036 -0.7775
H 2.2264 0.9479 -0.3751
H 2.2528 -0.8721 -0.2585
17
Frame 24
C -0.7273 -1.3777 -0.2950
C -0.0707 -0.0025 -0.0630
C 0.1868 0.2491 1.4076
C -0.9585 1.1142 -0.6659
H 1.1369 -0.0536 -1.5243
H -1.8996 1.1437 -0.1194
H -1.1828 0.9392 -1.7128
H -0.4825 2.0833 -0.5714
H -1.6779 -1.4116 0.2349
H -0.1001 -2.1750 0.0858
H -0.9218 -1.5641 -1.3460
H 0.8213 -0.5232 1.8245
H -0.7497 0.2554 1.9678
H 0.6698 1.2074 1.5556
C 1.8927 0.0038 -0.7694
H 2.2345 0.9503 -0.3980
H 2.2617 -0.8773 -0.2815
17
Frame 25
C -0.7252 -1.3769 -0.2952
C -0.0616 -0.0022 -0.0621
C 0.1854 0.2492 1.4098
C -0.9556 1.1135 -0.6661
H 1.2272 -0.0582 -1.6119
H -1.8969 1.1410 -0.1199
H -1.1801 0.9379 -1.7129
H -0.4829 2.0843 -0.5717
H -1.6764 -1.4094 0.2337
H -0.1008 -2.1765 0.0860
H -0.9196 -1.5625 -1.3464
H 0.8208 -0.5228 1.8268
H -0.7500 0.2558 1.9709
H 0.6694 1.2074 1.5574
C 1.8704 0.0039 -0.7616
H 2.2426 0.9509 -0.4200
H 2.2707 -0.8805 -0.3038
17
Frame 26
C -0.7246 -1.3767 -0.2952
C -0.0588 -0.0021 -0.0622
C 0.1851 0.2492 1.4104
C -0.9548 1.1133 -0.6661
H 1.2505 -0.0591 -1.6300
H -1.8961 1.1402 -0.1200
H -1.1792 0.9375 -1.7129
H -0.4830 2.0846 -0.5718
H -1.6759 -1.4086 0.2334
H -0.1010 -2.1769 0.0860
H -0.9189 -1.5620 -1.3465
H 0.8206 -0.5227 1.8276
H -0.7502 0.2558 1.9713
H 0.6693 1.2074 1.5580
C 1.8641 0.0039 -0.7598
H 2.2443 0.9505 -0.4249
H 2.2726 -0.8806 -0.3088
17
Frame 27
C -0.7240 -1.3765 -0.2952
C -0.0561 -0.0021 -0.0623
C 0.1848 0.2493 1.4111
C -0.9540 1.1132 -0.6661
H 1.2738 -0.0600 -1.6481
H -1.8953 1.1393 -0.1200
H -1.1783 0.9371 -1.7128
H -0.4831 2.0849 -0.5719
H -1.6755 -1.4079 0.2331
H -0.1011 -2.1774 0.0860
H -0.9182 -1.5615 -1.3465
H 0.8205 -0.5226 1.8284
H -0.7504 0.2559 1.9717
H 0.6691 1.2075 1.5587
C 1.8578 0.0039 -0.7580
H 2.2460 0.9500 -0.4299
H 2.2745 -0.8808 -0.3139
