21
Frame 1
N 0.9603 -0.1181 -0.4249
C -0.2541 0.6831 -0.2927
C -0.9902 0.4057 0.9561
H -0.9262 0.4824 -1.1206
H -0.4674 -0.0522 1.7722
C 2.0727 0.3560 0.4288
C 1.3784 -0.2772 -1.8405
H 2.9009 -0.3309 0.3363
H 1.7749 0.3752 1.4702
H 2.4074 1.3507 0.1419
H 2.2150 -0.9598 -1.8753
H 1.6799 0.6668 -2.2874
H 0.5651 -0.6997 -2.4154
H -0.0728 1.7684 -0.2978
C -2.3960 0.7668 1.1259
H -2.7844 -0.0379 1.7621
H -2.9569 0.7603 0.2020
H -2.5282 1.6920 1.6707
O -1.1429 -1.9800 0.2244
H -1.2493 -2.8985 0.5725
H -0.1865 -1.9531 -0.1085
21
Frame 2
N 0.9564 -0.1250 -0.4311
C -0.2538 0.6833 -0.2910
C -0.9964 0.3897 0.9524
H -0.9216 0.4997 -1.1242
H -0.4712 -0.0462 1.7768
C 2.0691 0.3281 0.4324
C 1.3796 -0.2632 -1.8469
H 2.8934 -0.3615 0.3305
H 1.7685 0.3325 1.4724
H 2.4100 1.3243 0.1622
H 2.2118 -0.9501 -1.8902
H 1.6888 0.6853 -2.2757
H 0.5662 -0.6699 -2.4311
H -0.0628 1.7649 -0.2770
C -2.4051 0.7485 1.1191
H -2.8066 -0.0311 1.7696
H -2.9619 0.7364 0.1931
H -2.5240 1.6880 1.6399
O -1.1371 -1.9562 0.2266
H -1.2186 -2.8568 0.6085
H -0.1851 -1.9207 -0.1163
21
Frame 3
N 0.9526 -0.1319 -0.4374
C -0.2534 0.6835 -0.2894
C -1.0025 0.3737 0.9487
H -0.9171 0.5169 -1.1278
H -0.4749 -0.0401 1.7814
C 2.0654 0.3003 0.4361
C 1.3809 -0.2491 -1.8534
H 2.8860 -0.3922 0.3246
H 1.7621 0.2897 1.4747
H 2.4127 1.2978 0.1825
H 2.2087 -0.9404 -1.9051
H 1.6977 0.7038 -2.2640
H 0.5673 -0.6401 -2.4468
H -0.0528 1.7614 -0.2561
C -2.4142 0.7301 1.1122
H -2.8289 -0.0243 1.7771
H -2.9668 0.7126 0.1842
H -2.5198 1.6839 1.6092
O -1.1313 -1.9323 0.2288
H -1.1879 -2.8151 0.6446
H -0.1838 -1.8882 -0.1242
21
Frame 4
N 0.9487 -0.1388 -0.4436
C -0.2531 0.6837 -0.2877
C -1.0087 0.3577 0.9450
H -0.9125 0.5342 -1.1314
H -0.4787 -0.0341 1.7860
C 2.0618 0.2724 0.4397
C 1.3821 -0.2351 -1.8598
H 2.8785 -0.4228 0.3188
H 1.7557 0.2470 1.4769
H 2.4153 1.2714 0.2028
H 2.2055 -0.9307 -1.9200
H 1.7066 0.7223 -2.2523
H 0.5684 -0.6103 -2.4625
H -0.0428 1.7579 -0.2353
C -2.4233 0.7118 1.1054
H -2.8511 -0.0175 1.7846
H -2.9718 0.6887 0.1753
H -2.5156 1.6799 1.5784
O -1.1255 -1.9085 0.2310
H -1.1572 -2.7734 0.6806
H -0.1824 -1.8558 -0.1320
21
Frame 5
N 0.9449 -0.1457 -0.4499
C -0.2528 0.6838 -0.2861
C -1.0149 0.3417 0.9413
H -0.9080 0.5515 -1.1351
H -0.4825 -0.0280 1.7907
C 2.0582 0.2446 0.4433
C 1.3833 -0.2211 -1.8662
H 2.8710 -0.4535 0.3130
H 1.7492 0.2042 1.4791
H 2.4179 1.2449 0.2230
H 2.2024 -0.9211 -1.9348
H 1.7155 0.7409 -2.2406
H 0.5696 -0.5805 -2.4781
H -0.0327 1.7543 -0.2144
C -2.4325 0.6935 1.0985
H -2.8734 -0.0107 1.7920
H -2.9767 0.6649 0.1665
H -2.5115 1.6759 1.5476
O -1.1196 -1.8847 0.2331
H -1.1265 -2.7316 0.7167
H -0.1810 -1.8234 -0.1399
21
Frame 6
N 0.9410 -0.1526 -0.4561
C -0.2525 0.6840 -0.2844
C -1.0211 0.3257 0.9376
H -0.9034 0.5688 -1.1387
H -0.4863 -0.0220 1.7953
C 2.0546 0.2167 0.4469
C 1.3845 -0.2071 -1.8726
H 2.8635 -0.4841 0.3072
H 1.7428 0.1615 1.4813
H 2.4205 1.2185 0.2433
H 2.1992 -0.9114 -1.9497
H 1.7244 0.7594 -2.2289
H 0.5707 -0.5507 -2.4938
H -0.0227 1.7508 -0.1936
C -2.4416 0.6752 1.0917
H -2.8956 -0.0039 1.7995
H -2.9817 0.6410 0.1576
H -2.5073 1.6719 1.5168
O -1.1138 -1.8609 0.2353
H -1.0958 -2.6899 0.7527
H -0.1796 -1.7910 -0.1477
21
Frame 7
N 0.9372 -0.1595 -0.4624
C -0.2521 0.6842 -0.2828
C -1.0272 0.3097 0.9339
H -0.8989 0.5860 -1.1423
H -0.4900 -0.0159 1.7999
C 2.0509 0.1889 0.4506
C 1.3858 -0.1930 -1.8791
H 2.8561 -0.5148 0.3013
H 1.7364 0.1187 1.4836
H 2.4232 1.1920 0.2636
H 2.1961 -0.9017 -1.9646
H 1.7333 0.7779 -2.2172
H 0.5718 -0.5209 -2.5095
H -0.0127 1.7473 -0.1727
C -2.4507 0.6568 1.0848
H -2.9179 0.0029 1.8070
H -2.9866 0.6172 0.1487
H -2.5031 1.6678 1.4861
O -1.1080 -1.8370 0.2375
H -1.0651 -2.6482 0.7888
H -0.1783 -1.7585 -0.1556
21
Frame 8
N 0.9333 -0.1664 -0.4686
C -0.2518 0.6844 -0.2811
C -1.0334 0.2937 0.9302
H -0.8943 0.6033 -1.1459
H -0.4938 -0.0099 1.8045
C 2.0473 0.1610 0.4542
C 1.3870 -0.1790 -1.8855
H 2.8486 -0.5454 0.2955
H 1.7300 0.0760 1.4858
H 2.4258 1.1656 0.2839
H 2.1929 -0.8920 -1.9795
H 1.7422 0.7964 -2.2055
H 0.5729 -0.4911 -2.5252
H -0.0027 1.7438 -0.1519
C -2.4598 0.6385 1.0780
H -2.9401 0.0097 1.8145
H -2.9916 0.5933 0.1398
H -2.4989 1.6638 1.4553
O -1.1022 -1.8132 0.2397
H -1.0344 -2.6065 0.8248
H -0.1769 -1.7261 -0.1634
21
Frame 9
N 0.9261 -0.1702 -0.4743
C -0.2472 0.6968 -0.2714
C -1.0373 0.2883 0.9330
H -0.8873 0.6434 -1.1400
H -0.4988 0.0121 1.8171
C 2.0477 0.1276 0.4502
C 1.3763 -0.1691 -1.8929
H 2.8372 -0.5895 0.2798
H 1.7309 0.0345 1.4812
H 2.4416 1.1281 0.2914
H 2.1726 -0.8913 -1.9988
H 1.7433 0.8064 -2.1994
H 0.5564 -0.4616 -2.5345
H 0.0211 1.7475 -0.1180
C -2.4709 0.6184 1.0632
H -2.9528 0.0085 1.8133
H -2.9900 0.5345 0.1205
H -2.5261 1.6561 1.4002
O -1.0862 -1.7835 0.2628
H -0.9870 -2.5543 0.8729
H -0.1695 -1.6828 -0.1563
21
Frame 10
N 0.9217 -0.1745 -0.4786
C -0.2436 0.7026 -0.2649
C -1.0384 0.2799 0.9356
H -0.8829 0.6660 -1.1347
H -0.5007 0.0249 1.8267
C 2.0479 0.1065 0.4464
C 1.3704 -0.1638 -1.8980
H 2.8313 -0.6156 0.2690
H 1.7319 0.0088 1.4771
H 2.4492 1.1048 0.2940
H 2.1602 -0.8918 -2.0117
H 1.7455 0.8112 -2.1948
H 0.5473 -0.4427 -2.5413
H 0.0362 1.7469 -0.0970
C -2.4762 0.6046 1.0539
H -2.9599 0.0096 1.8143
H -2.9864 0.4916 0.1088
H -2.5414 1.6510 1.3601
O -1.0790 -1.7547 0.2809
H -0.9646 -2.5121 0.9050
H -0.1683 -1.6532 -0.1510
21
Frame 11
N 0.9165 -0.1793 -0.4839
C -0.2410 0.7080 -0.2605
C -1.0412 0.2728 0.9360
H -0.8790 0.6866 -1.1314
H -0.5058 0.0426 1.8354
C 2.0468 0.0844 0.4421
C 1.3642 -0.1605 -1.9038
H 2.8237 -0.6428 0.2577
H 1.7308 -0.0186 1.4722
H 2.4559 1.0803 0.2968
H 2.1473 -0.8945 -2.0246
H 1.7478 0.8138 -2.1918
H 0.5380 -0.4260 -2.5487
H 0.0500 1.7460 -0.0796
C -2.4830 0.5930 1.0425
H -2.9658 0.0175 1.8180
H -2.9880 0.4455 0.0992
H -2.5570 1.6476 1.3141
O -1.0660 -1.7274 0.3052
H -0.9311 -2.4669 0.9463
H -0.1628 -1.6220 -0.1413
21
Frame 12
N 0.9120 -0.1834 -0.4883
C -0.2384 0.7131 -0.2563
C -1.0444 0.2653 0.9359
H -0.8750 0.7057 -1.1284
H -0.5125 0.0602 1.8434
C 2.0464 0.0652 0.4377
C 1.3579 -0.1600 -1.9090
H 2.8170 -0.6675 0.2478
H 1.7303 -0.0400 1.4676
H 2.4631 1.0586 0.2966
H 2.1345 -0.9000 -2.0353
H 1.7492 0.8129 -2.1907
H 0.5283 -0.4140 -2.5539
H 0.0626 1.7449 -0.0633
C -2.4898 0.5824 1.0309
H -2.9740 0.0172 1.8131
H -2.9887 0.4149 0.0879
H -2.5706 1.6406 1.2833
O -1.0523 -1.7002 0.3285
H -0.8993 -2.4235 0.9840
H -0.1563 -1.5925 -0.1315
21
Frame 13
N 0.9085 -0.1875 -0.4915
C -0.2360 0.7164 -0.2526
C -1.0468 0.2558 0.9353
H -0.8710 0.7202 -1.1257
H -0.5176 0.0727 1.8494
C 2.0465 0.0510 0.4336
C 1.3528 -0.1612 -1.9128
H 2.8114 -0.6869 0.2416
H 1.7307 -0.0525 1.4636
H 2.4698 1.0412 0.2928
H 2.1259 -0.9046 -2.0430
H 1.7486 0.8110 -2.1905
H 0.5210 -0.4086 -2.5577
H 0.0726 1.7430 -0.0495
C -2.4947 0.5735 1.0220
H -2.9812 0.0164 1.8086
H -2.9891 0.3914 0.0794
H -2.5791 1.6341 1.2598
O -1.0424 -1.6734 0.3468
H -0.8789 -2.3849 1.0126
H -0.1509 -1.5670 -0.1223
21
Frame 14
N 0.9051 -0.1908 -0.4945
C -0.2336 0.7206 -0.2485
C -1.0494 0.2464 0.9348
H -0.8672 0.7359 -1.1228
H -0.5240 0.0868 1.8556
C 2.0470 0.0369 0.4295
C 1.3474 -0.1631 -1.9167
H 2.8053 -0.7075 0.2361
H 1.7311 -0.0634 1.4597
H 2.4780 1.0233 0.2879
H 2.1143 -0.9119 -2.0510
H 1.7504 0.8070 -2.1906
H 0.5126 -0.4009 -2.5609
H 0.0828 1.7419 -0.0352
C -2.5002 0.5640 1.0125
H -2.9894 0.0127 1.8017
H -2.9895 0.3701 0.0694
H -2.5886 1.6261 1.2391
O -1.0311 -1.6467 0.3660
H -0.8559 -2.3460 1.0416
H -0.1450 -1.5416 -0.1136
21
Frame 15
N 0.9028 -0.1938 -0.4955
C -0.2300 0.7248 -0.2424
C -1.0524 0.2356 0.9344
H -0.8609 0.7531 -1.1180
H -0.5317 0.0974 1.8621
C 2.0496 0.0266 0.4247
C 1.3401 -0.1674 -1.9192
H 2.8028 -0.7224 0.2283
H 1.7358 -0.0718 1.4558
H 2.4859 1.0106 0.2819
H 2.1027 -0.9203 -2.0568
H 1.7472 0.8008 -2.1935
H 0.5016 -0.4002 -2.5606
H 0.0934 1.7402 -0.0168
C -2.5052 0.5555 1.0020
H -2.9996 0.0076 1.7904
H -2.9877 0.3548 0.0568
H -2.5961 1.6185 1.2217
O -1.0207 -1.6203 0.3824
H -0.8403 -2.3114 1.0650
H -0.1372 -1.5180 -0.1026
21
Frame 16
N 0.9002 -0.1964 -0.4970
C -0.2270 0.7290 -0.2370
C -1.0545 0.2251 0.9343
H -0.8562 0.7682 -1.1137
H -0.5391 0.1096 1.8684
C 2.0513 0.0156 0.4204
C 1.3340 -0.1710 -1.9220
H 2.7992 -0.7381 0.2213
H 1.7386 -0.0809 1.4522
H 2.4930 0.9971 0.2768
H 2.0903 -0.9293 -2.0633
H 1.7471 0.7948 -2.1951
H 0.4917 -0.3959 -2.5612
H 0.1030 1.7392 -0.0015
C -2.5096 0.5470 0.9922
H -3.0083 0.0038 1.7812
H -2.9862 0.3374 0.0458
H -2.6034 1.6109 1.2028
O -1.0102 -1.5937 0.3999
H -0.8232 -2.2772 1.0884
H -0.1307 -1.4951 -0.0930
21
Frame 17
N 0.8981 -0.1986 -0.4982
C -0.2241 0.7328 -0.2314
C -1.0567 0.2140 0.9342
H -0.8513 0.7831 -1.1091
H -0.5467 0.1211 1.8739
C 2.0535 0.0060 0.4163
C 1.3281 -0.1752 -1.9245
H 2.7953 -0.7536 0.2167
H 1.7419 -0.0855 1.4489
H 2.5015 0.9839 0.2695
H 2.0783 -0.9386 -2.0690
H 1.7474 0.7879 -2.1969
H 0.4823 -0.3925 -2.5616
H 0.1123 1.7376 0.0142
C -2.5139 0.5385 0.9829
H -3.0169 0.0000 1.7726
H -2.9858 0.3209 0.0359
H -2.6095 1.6031 1.1855
O -1.0007 -1.5673 0.4160
H -0.8080 -2.2446 1.1091
H -0.1253 -1.4731 -0.0849
21
Frame 18
N 0.8968 -0.2004 -0.4978
C -0.2202 0.7367 -0.2243
C -1.0589 0.2021 0.9341
H -0.8447 0.7995 -1.1029
H -0.5560 0.1301 1.8798
C 2.0575 -0.0011 0.4116
C 1.3206 -0.1808 -1.9261
H 2.7933 -0.7664 0.2119
H 1.7486 -0.0860 1.4456
H 2.5112 0.9730 0.2590
H 2.0671 -0.9476 -2.0729
H 1.7426 0.7803 -2.2009
H 0.4710 -0.3953 -2.5590
H 0.1221 1.7354 0.0330
C -2.5176 0.5308 0.9725
H -3.0266 -0.0069 1.7590
H -2.9826 0.3108 0.0228
H -2.6146 1.5952 1.1724
O -0.9921 -1.5412 0.4307
H -0.7982 -2.2152 1.1266
H -0.1190 -1.4528 -0.0752
21
Frame 19
N 0.8953 -0.2026 -0.4981
C -0.2174 0.7397 -0.2192
C -1.0603 0.1901 0.9332
H -0.8393 0.8126 -1.0989
H -0.5631 0.1393 1.8839
C 2.0600 -0.0081 0.4077
C 1.3148 -0.1865 -1.9280
H 2.7907 -0.7784 0.2084
H 1.7528 -0.0870 1.4427
H 2.5186 0.9627 0.2504
H 2.0600 -0.9546 -2.0761
H 1.7367 0.7739 -2.2053
H 0.4623 -0.4011 -2.5571
H 0.1300 1.7335 0.0475
C -2.5203 0.5242 0.9644
H -3.0351 -0.0152 1.7460
H -2.9790 0.3053 0.0113
H -2.6185 1.5879 1.1651
O -0.9844 -1.5152 0.4449
H -0.7904 -2.1864 1.1434
H -0.1134 -1.4341 -0.0660
21
Frame 20
N 0.8947 -0.2032 -0.4964
C -0.2133 0.7442 -0.2103
C -1.0626 0.1769 0.9335
H -0.8325 0.8298 -1.0909
H -0.5732 0.1464 1.8896
C 2.0657 -0.0130 0.4031
C 1.3064 -0.1928 -1.9286
H 2.7902 -0.7890 0.2036
H 1.7619 -0.0846 1.4397
H 2.5295 0.9542 0.2391
H 2.0434 -0.9679 -2.0798
H 1.7361 0.7631 -2.2085
H 0.4489 -0.3990 -2.5534
H 0.1395 1.7316 0.0692
C -2.5240 0.5160 0.9534
H -3.0444 -0.0155 1.7371
H -2.9783 0.2876 0.0003
H -2.6219 1.5810 1.1436
O -0.9759 -1.4895 0.4573
H -0.7841 -2.1619 1.1553
H -0.1063 -1.4147 -0.0568
21
Frame 21
N 0.8941 -0.2042 -0.4950
C -0.2099 0.7477 -0.2035
C -1.0642 0.1636 0.9325
H -0.8264 0.8439 -1.0850
H -0.5819 0.1534 1.8933
C 2.0702 -0.0172 0.3993
C 1.2995 -0.1996 -1.9291
H 2.7899 -0.7979 0.2001
H 1.7692 -0.0823 1.4372
H 2.5381 0.9467 0.2293
H 2.0313 -0.9794 -2.0817
H 1.7336 0.7531 -2.2124
H 0.4381 -0.4019 -2.5498
H 0.1471 1.7298 0.0867
C -2.5265 0.5093 0.9446
H -3.0521 -0.0184 1.7278
H -2.9772 0.2767 -0.0095
H -2.6237 1.5746 1.1301
O -0.9687 -1.4639 0.4685
H -0.7795 -2.1379 1.1657
H -0.1006 -1.3960 -0.0491
21
Frame 22
N 0.8936 -0.2052 -0.4938
C -0.2060 0.7511 -0.1956
C -1.0658 0.1510 0.9324
H -0.8193 0.8599 -1.0776
H -0.5923 0.1625 1.8980
C 2.0750 -0.0221 0.3945
C 1.2914 -0.2058 -1.9299
H 2.7892 -0.8077 0.1950
H 1.7779 -0.0807 1.4338
H 2.5472 0.9384 0.2182
H 2.0190 -0.9890 -2.0849
H 1.7278 0.7446 -2.2171
H 0.4257 -0.4053 -2.5453
H 0.1559 1.7267 0.1065
C -2.5289 0.5023 0.9337
H -3.0618 -0.0246 1.7125
H -2.9724 0.2691 -0.0236
H -2.6265 1.5675 1.1174
O -0.9604 -1.4383 0.4839
H -0.7752 -2.1145 1.1800
H -0.0942 -1.3799 -0.0380
21
Frame 23
N 0.8932 -0.2059 -0.4929
C -0.2026 0.7542 -0.1886
C -1.0671 0.1380 0.9319
H -0.8134 0.8736 -1.0712
H -0.6016 0.1714 1.9016
C 2.0794 -0.0266 0.3901
C 1.2842 -0.2117 -1.9309
H 2.7882 -0.8173 0.1913
H 1.7853 -0.0787 1.4306
H 2.5563 0.9302 0.2077
H 2.0084 -0.9977 -2.0876
H 1.7228 0.7366 -2.2214
H 0.4149 -0.4090 -2.5419
H 0.1634 1.7244 0.1240
C -2.5310 0.4959 0.9240
H -3.0708 -0.0290 1.6999
H -2.9689 0.2615 -0.0358
H -2.6277 1.5612 1.1054
O -0.9524 -1.4130 0.4987
H -0.7726 -2.0931 1.1925
H -0.0881 -1.3650 -0.0275
21
Frame 24
N 0.8928 -0.2066 -0.4912
C -0.1988 0.7575 -0.1806
C -1.0682 0.1250 0.9321
H -0.8061 0.8895 -1.0637
H -0.6123 0.1810 1.9059
C 2.0845 -0.0305 0.3853
C 1.2760 -0.2181 -1.9313
H 2.7885 -0.8252 0.1857
H 1.7946 -0.0764 1.4273
H 2.5647 0.9234 0.1968
H 1.9940 -1.0093 -2.0906
H 1.7188 0.7268 -2.2259
H 0.4018 -0.4107 -2.5367
H 0.1715 1.7213 0.1444
C -2.5327 0.4892 0.9130
H -3.0802 -0.0344 1.6845
H -2.9637 0.2538 -0.0499
H -2.6293 1.5543 1.0921
O -0.9439 -1.3877 0.5143
H -0.7701 -2.0724 1.2050
H -0.0819 -1.3503 -0.0165
21
Frame 25
N 0.8931 -0.2074 -0.4889
C -0.1952 0.7599 -0.1733
C -1.0692 0.1109 0.9312
H -0.7997 0.9022 -1.0567
H -0.6220 0.1871 1.9083
C 2.0901 -0.0325 0.3813
C 1.2685 -0.2256 -1.9310
H 2.7892 -0.8321 0.1832
H 1.8040 -0.0705 1.4247
H 2.5740 0.9179 0.1846
H 1.9868 -1.0164 -2.0910
H 1.7087 0.7186 -2.2317
H 0.3911 -0.4213 -2.5307
H 0.1784 1.7181 0.1627
C -2.5337 0.4841 0.9040
H -3.0891 -0.0379 1.6715
H -2.9597 0.2504 -0.0619
H -2.6275 1.5492 1.0833
O -0.9376 -1.3628 0.5262
H -0.7733 -2.0552 1.2116
H -0.0768 -1.3367 -0.0072
