13
Frame 1
H -0.9913 -1.4600 0.4422
C -1.5447 -0.6776 -0.0642
H -1.4800 -0.8671 -1.1329
C -0.9048 0.6949 0.2688
H -2.5940 -0.7443 0.2285
B 0.6965 0.7523 -0.1083
H -1.0529 0.8978 1.3319
H -1.4362 1.4811 -0.2728
H 1.1782 1.8517 0.1631
H 0.8472 0.5188 -1.3272
O 1.3450 -0.3873 0.6897
O 2.7338 -0.5518 0.2068
H 2.5851 -0.6286 -0.7517
13
Frame 2
H -1.0074 -1.4679 0.4119
C -1.5621 -0.6702 -0.0693
H -1.5209 -0.8404 -1.1424
C -0.9022 0.6897 0.2762
H -2.6060 -0.7323 0.2433
B 0.6950 0.7403 -0.1191
H -1.0325 0.8774 1.3444
H -1.4335 1.4895 -0.2452
H 1.1786 1.8428 0.1362
H 0.8360 0.4934 -1.3361
O 1.3502 -0.3887 0.6885
O 2.7434 -0.5421 0.2145
H 2.6007 -0.6396 -0.7431
13
Frame 3
H -1.0100 -1.4746 0.3842
C -1.5687 -0.6659 -0.0735
H -1.5440 -0.8152 -1.1501
C -0.8986 0.6847 0.2882
H -2.6080 -0.7311 0.2534
B 0.6926 0.7371 -0.1337
H -1.0055 0.8491 1.3628
H -1.4384 1.4969 -0.2046
H 1.1787 1.8406 0.1111
H 0.8189 0.4823 -1.3497
O 1.3492 -0.3868 0.6805
O 2.7488 -0.5361 0.2258
H 2.6153 -0.7063 -0.7228
13
Frame 4
H -1.0158 -1.4794 0.3764
C -1.5693 -0.6642 -0.0763
H -1.5394 -0.8030 -1.1542
C -0.8956 0.6805 0.3007
H -2.6104 -0.7291 0.2448
B 0.6899 0.7400 -0.1459
H -0.9831 0.8230 1.3800
H -1.4453 1.5010 -0.1666
H 1.1773 1.8433 0.0962
H 0.8008 0.4854 -1.3619
O 1.3461 -0.3837 0.6696
O 2.7516 -0.5324 0.2351
H 2.6278 -0.8116 -0.6884
13
Frame 5
H -1.0275 -1.4843 0.3800
C -1.5681 -0.6635 -0.0786
H -1.5216 -0.7986 -1.1562
C -0.8917 0.6758 0.3128
H -2.6148 -0.7228 0.2257
B 0.6876 0.7446 -0.1568
H -0.9609 0.7974 1.3959
H -1.4510 1.5033 -0.1301
H 1.1758 1.8476 0.0852
H 0.7842 0.4931 -1.3730
O 1.3422 -0.3797 0.6587
O 2.7525 -0.5296 0.2425
H 2.6398 -0.9160 -0.6425
13
Frame 6
H -1.0471 -1.4903 0.3917
C -1.5664 -0.6635 -0.0806
H -1.4964 -0.8013 -1.1565
C -0.8847 0.6695 0.3243
H -2.6205 -0.7099 0.1993
B 0.6869 0.7499 -0.1674
H -0.9328 0.7682 1.4108
H -1.4548 1.5042 -0.0904
H 1.1754 1.8527 0.0759
H 0.7726 0.5023 -1.3838
O 1.3367 -0.3750 0.6487
O 2.7506 -0.5269 0.2481
H 2.6492 -1.0080 -0.5902
13
Frame 7
H -1.0742 -1.4983 0.4084
C -1.5651 -0.6645 -0.0820
H -1.4699 -0.8104 -1.1549
C -0.8736 0.6610 0.3343
H -2.6269 -0.6905 0.1707
B 0.6895 0.7558 -0.1779
H -0.8961 0.7342 1.4236
H -1.4554 1.5035 -0.0472
H 1.1777 1.8581 0.0691
H 0.7702 0.5125 -1.3943
O 1.3292 -0.3697 0.6405
O 2.7449 -0.5234 0.2522
H 2.6536 -1.0806 -0.5384
13
Frame 8
H -1.1061 -1.5084 0.4257
C -1.5654 -0.6674 -0.0828
H -1.4482 -0.8244 -1.1520
C -0.8598 0.6514 0.3423
H -2.6332 -0.6685 0.1442
B 0.6978 0.7622 -0.1880
H -0.8545 0.6982 1.4332
H -1.4549 1.5005 -0.0021
H 1.1877 1.8627 0.0644
H 0.7798 0.5223 -1.4040
O 1.3198 -0.3643 0.6346
O 2.7356 -0.5188 0.2545
H 2.6531 -1.1331 -0.4932
13
Frame 9
H -1.1388 -1.5211 0.4391
C -1.5682 -0.6726 -0.0830
H -1.4330 -0.8382 -1.1487
C -0.8472 0.6419 0.3501
H -2.6404 -0.6504 0.1214
B 0.7144 0.7691 -0.1977
H -0.8179 0.6657 1.4412
H -1.4558 1.4942 0.0386
H 1.2123 1.8651 0.0591
H 0.8014 0.5297 -1.4127
O 1.3091 -0.3593 0.6306
O 2.7242 -0.5130 0.2554
H 2.6487 -1.1682 -0.4573
13
Frame 10
H -1.1678 -1.5352 0.4464
C -1.5729 -0.6789 -0.0825
H -1.4226 -0.8470 -1.1458
C -0.8396 0.6329 0.3594
H -2.6481 -0.6396 0.1023
B 0.7394 0.7758 -0.2078
H -0.7968 0.6419 1.4500
H -1.4591 1.4852 0.0687
H 1.2497 1.8650 0.0516
H 0.8300 0.5335 -1.4211
O 1.2973 -0.3546 0.6282
O 2.7134 -0.5068 0.2549
H 2.6429 -1.1902 -0.4312
13
Frame 11
H -1.1915 -1.5487 0.4488
C -1.5781 -0.6846 -0.0817
H -1.4148 -0.8503 -1.1435
C -0.8373 0.6236 0.3702
H -2.6558 -0.6347 0.0867
B 0.7695 0.7815 -0.2182
H -0.7921 0.6268 1.4606
H -1.4611 1.4755 0.0859
H 1.2912 1.8640 0.0434
H 0.8593 0.5346 -1.4295
O 1.2839 -0.3501 0.6272
O 2.7054 -0.5009 0.2532
H 2.6380 -1.2040 -0.4133
13
Frame 12
H -1.2105 -1.5602 0.4486
C -1.5828 -0.6890 -0.0808
H -1.4083 -0.8501 -1.1416
C -0.8382 0.6138 0.3820
H -2.6625 -0.6329 0.0739
B 0.8016 0.7859 -0.2286
H -0.7990 0.6178 1.4723
H -1.4586 1.4670 0.0929
H 1.3295 1.8629 0.0363
H 0.8850 0.5343 -1.4378
O 1.2681 -0.3454 0.6273
O 2.7011 -0.4956 0.2504
H 2.6345 -1.2128 -0.4012
13
Frame 13
H -1.2258 -1.5698 0.4473
C -1.5869 -0.6923 -0.0798
H -1.4027 -0.8483 -1.1398
C -0.8404 0.6036 0.3940
H -2.6683 -0.6323 0.0633
B 0.8336 0.7888 -0.2386
H -0.8128 0.6124 1.4844
H -1.4502 1.4605 0.0927
H 1.3618 1.8624 0.0309
H 0.9057 0.5333 -1.4453
O 1.2494 -0.3402 0.6284
O 2.7004 -0.4909 0.2467
H 2.6337 -1.2189 -0.3934
13
Frame 14
H -1.2383 -1.5776 0.4456
C -1.5902 -0.6947 -0.0790
H -1.3977 -0.8458 -1.1383
C -0.8429 0.5931 0.4057
H -2.6730 -0.6322 0.0544
B 0.8645 0.7903 -0.2477
H -0.8302 0.6094 1.4960
H -1.4358 1.4558 0.0877
H 1.3876 1.8624 0.0272
H 0.9212 0.5322 -1.4519
O 1.2284 -0.3346 0.6302
O 2.7028 -0.4868 0.2423
H 2.6355 -1.2233 -0.3886
13
Frame 15
H -1.2486 -1.5840 0.4438
C -1.5930 -0.6964 -0.0782
H -1.3933 -0.8432 -1.1369
C -0.8451 0.5826 0.4169
H -2.6770 -0.6320 0.0470
B 0.8939 0.7905 -0.2558
H -0.8492 0.6080 1.5068
H -1.4161 1.4526 0.0797
H 1.4074 1.8628 0.0250
H 0.9321 0.5312 -1.4574
O 1.2055 -0.3284 0.6325
O 2.7075 -0.4832 0.2373
H 2.6400 -1.2266 -0.3862
13
Frame 16
H -1.2572 -1.5891 0.4422
C -1.5952 -0.6976 -0.0776
H -1.3895 -0.8406 -1.1356
C -0.8469 0.5721 0.4276
H -2.6803 -0.6317 0.0406
B 0.9221 0.7896 -0.2630
H -0.8686 0.6076 1.5166
H -1.3918 1.4502 0.0698
H 1.4222 1.8635 0.0237
H 0.9390 0.5306 -1.4617
O 1.1814 -0.3218 0.6349
O 2.7137 -0.4799 0.2320
H 2.6463 -1.2292 -0.3854
13
Frame 17
H -1.2645 -1.5933 0.4408
C -1.5971 -0.6985 -0.0770
H -1.3860 -0.8382 -1.1345
C -0.8482 0.5617 0.4378
H -2.6831 -0.6310 0.0352
B 0.9491 0.7876 -0.2693
H -0.8878 0.6079 1.5253
H -1.3637 1.4483 0.0590
H 1.4327 1.8643 0.0232
H 0.9428 0.5305 -1.4650
O 1.1564 -0.3148 0.6374
O 2.7209 -0.4768 0.2265
H 2.6540 -1.2313 -0.3858
13
Frame 18
H -1.2707 -1.5968 0.4395
C -1.5986 -0.6992 -0.0765
H -1.3829 -0.8359 -1.1336
C -0.8490 0.5514 0.4475
H -2.6854 -0.6299 0.0306
B 0.9753 0.7848 -0.2748
H -0.9063 0.6088 1.5330
H -1.3322 1.4462 0.0477
H 1.4398 1.8652 0.0231
H 0.9440 0.5310 -1.4674
O 1.1309 -0.3075 0.6400
O 2.7286 -0.4738 0.2208
H 2.6625 -1.2328 -0.3870
13
Frame 19
H -1.2760 -1.5995 0.4384
C -1.5999 -0.6998 -0.0761
H -1.3800 -0.8338 -1.1326
C -0.8492 0.5412 0.4569
H -2.6872 -0.6284 0.0266
B 1.0009 0.7812 -0.2796
H -0.9242 0.6101 1.5396
H -1.2981 1.4438 0.0364
H 1.4440 1.8662 0.0233
H 0.9430 0.5320 -1.4690
O 1.1049 -0.3001 0.6425
O 2.7365 -0.4708 0.2150
H 2.6712 -1.2340 -0.3888
13
Frame 20
H -1.2807 -1.6018 0.4374
C -1.6010 -0.7003 -0.0757
H -1.3774 -0.8317 -1.1318
C -0.8488 0.5312 0.4659
H -2.6886 -0.6264 0.0232
B 1.0260 0.7769 -0.2839
H -0.9412 0.6116 1.5453
H -1.2619 1.4407 0.0255
H 1.4461 1.8671 0.0236
H 0.9404 0.5336 -1.4700
O 1.0788 -0.2925 0.6450
O 2.7444 -0.4676 0.2092
H 2.6794 -1.2348 -0.3909
13
Frame 21
H -1.2848 -1.6036 0.4365
C -1.6019 -0.7007 -0.0755
H -1.3750 -0.8297 -1.1310
C -0.8478 0.5212 0.4746
H -2.6896 -0.6239 0.0204
B 1.0510 0.7719 -0.2876
H -0.9573 0.6133 1.5500
H -1.2243 1.4367 0.0152
H 1.4465 1.8680 0.0239
H 0.9366 0.5356 -1.4704
O 1.0524 -0.2848 0.6475
O 2.7521 -0.4642 0.2032
H 2.6868 -1.2354 -0.3930
13
Frame 22
H -1.2884 -1.6052 0.4355
C -1.6026 -0.7011 -0.0753
H -1.3728 -0.8275 -1.1303
C -0.8462 0.5114 0.4830
H -2.6902 -0.6211 0.0180
B 1.0758 0.7663 -0.2910
H -0.9728 0.6151 1.5541
H -1.1858 1.4316 0.0058
H 1.4458 1.8687 0.0245
H 0.9321 0.5380 -1.4703
O 1.0260 -0.2772 0.6501
O 2.7596 -0.4604 0.1971
H 2.6924 -1.2367 -0.3940
13
Frame 23
H -1.2951 -1.6074 0.4346
C -1.6038 -0.7020 -0.0749
H -1.3682 -0.8241 -1.1284
C -0.8406 0.4921 0.4987
H -2.6903 -0.6137 0.0144
B 1.1252 0.7537 -0.2968
H -1.0005 0.6183 1.5603
H -1.1087 1.4181 -0.0094
H 1.4435 1.8700 0.0242
H 0.9222 0.5434 -1.4699
O 0.9724 -0.2621 0.6551
O 2.7730 -0.4523 0.1852
H 2.7003 -1.2328 -0.4025
13
Frame 24
H -1.2984 -1.6084 0.4347
C -1.6042 -0.7025 -0.0747
H -1.3656 -0.8229 -1.1273
C -0.8365 0.4826 0.5061
H -2.6898 -0.6092 0.0130
B 1.1499 0.7467 -0.2993
H -1.0129 0.6197 1.5628
H -1.0710 1.4098 -0.0150
H 1.4430 1.8705 0.0232
H 0.9180 0.5461 -1.4697
O 0.9454 -0.2546 0.6576
O 2.7789 -0.4478 0.1795
H 2.7030 -1.2278 -0.4094
13
Frame 25
H -1.3016 -1.6096 0.4346
C -1.6046 -0.7030 -0.0745
H -1.3631 -0.8215 -1.1262
C -0.8316 0.4732 0.5132
H -2.6892 -0.6045 0.0120
B 1.1745 0.7391 -0.3014
H -1.0246 0.6208 1.5650
H -1.0348 1.4005 -0.0193
H 1.4438 1.8704 0.0223
H 0.9152 0.5486 -1.4696
O 0.9182 -0.2471 0.6600
O 2.7842 -0.4428 0.1735
H 2.7034 -1.2234 -0.4146
13
Frame 26
H -1.3050 -1.6110 0.4343
C -1.6049 -0.7036 -0.0743
H -1.3608 -0.8200 -1.1253
C -0.8259 0.4639 0.5201
H -2.6884 -0.5994 0.0112
B 1.1991 0.7310 -0.3030
H -1.0356 0.6216 1.5669
H -1.0006 1.3905 -0.0223
H 1.4463 1.8696 0.0211
H 0.9142 0.5507 -1.4694
O 0.8910 -0.2396 0.6623
O 2.7890 -0.4374 0.1674
H 2.7019 -1.2187 -0.4187
13
Frame 27
H -1.3086 -1.6127 0.4339
C -1.6051 -0.7042 -0.0742
H -1.3584 -0.8186 -1.1244
C -0.8194 0.4547 0.5267
H -2.6874 -0.5941 0.0107
B 1.2236 0.7221 -0.3039
H -1.0458 0.6221 1.5685
H -0.9685 1.3800 -0.0241
H 1.4508 1.8679 0.0196
H 0.9154 0.5523 -1.4692
O 0.8638 -0.2320 0.6644
O 2.7930 -0.4315 0.1612
H 2.6990 -1.2140 -0.4217
13
Frame 28
H -1.3125 -1.6148 0.4334
C -1.6052 -0.7049 -0.0740
H -1.3561 -0.8173 -1.1235
C -0.8122 0.4455 0.5331
H -2.6864 -0.5884 0.0104
B 1.2481 0.7126 -0.3043
H -1.0553 0.6222 1.5698
H -0.9388 1.3693 -0.0249
H 1.4576 1.8652 0.0179
H 0.9191 0.5532 -1.4689
O 0.8368 -0.2243 0.6663
O 2.7963 -0.4251 0.1547
H 2.6948 -1.2092 -0.4237
13
Frame 29
H -1.3168 -1.6172 0.4327
C -1.6052 -0.7056 -0.0738
H -1.3539 -0.8160 -1.1227
C -0.8044 0.4365 0.5392
H -2.6852 -0.5825 0.0101
B 1.2725 0.7022 -0.3039
H -1.0639 0.6218 1.5710
H -0.9117 1.3585 -0.0247
H 1.4667 1.8614 0.0161
H 0.9254 0.5534 -1.4683
O 0.8100 -0.2165 0.6680
O 2.7988 -0.4182 0.1481
H 2.6896 -1.2045 -0.4246
13
Frame 30
H -1.3214 -1.6199 0.4319
C -1.6052 -0.7063 -0.0736
H -1.3517 -0.8149 -1.1220
C -0.7962 0.4277 0.5451
H -2.6840 -0.5764 0.0100
B 1.2969 0.6910 -0.3027
H -1.0717 0.6210 1.5719
H -0.8874 1.3480 -0.0236
H 1.4782 1.8563 0.0142
H 0.9342 0.5527 -1.4675
O 0.7835 -0.2086 0.6694
O 2.8004 -0.4107 0.1413
H 2.6836 -1.2000 -0.4243
13
Frame 31
H -1.3264 -1.6229 0.4309
C -1.6051 -0.7070 -0.0734
H -1.3496 -0.8139 -1.1213
C -0.7877 0.4190 0.5508
H -2.6826 -0.5700 0.0099
B 1.3213 0.6789 -0.3007
H -1.0787 0.6197 1.5726
H -0.8657 1.3378 -0.0219
H 1.4920 1.8499 0.0125
H 0.9454 0.5509 -1.4665
O 0.7575 -0.2007 0.6704
O 2.8012 -0.4026 0.1342
H 2.6770 -1.1959 -0.4226
13
Frame 32
H -1.3318 -1.6261 0.4299
C -1.6050 -0.7077 -0.0731
H -1.3476 -0.8130 -1.1206
C -0.7792 0.4107 0.5561
H -2.6813 -0.5633 0.0098
B 1.3457 0.6658 -0.2978
H -1.0849 0.6179 1.5733
H -0.8470 1.3282 -0.0196
H 1.5080 1.8422 0.0111
H 0.9591 0.5481 -1.4650
O 0.7322 -0.1926 0.6712
O 2.8012 -0.3940 0.1268
H 2.6700 -1.1922 -0.4196
13
Frame 33
H -1.3376 -1.6295 0.4287
C -1.6049 -0.7084 -0.0729
H -1.3457 -0.8122 -1.1200
C -0.7708 0.4027 0.5612
H -2.6798 -0.5564 0.0097
B 1.3703 0.6518 -0.2939
H -1.0905 0.6156 1.5739
H -0.8311 1.3192 -0.0169
H 1.5262 1.8330 0.0102
H 0.9750 0.5441 -1.4631
O 0.7076 -0.1847 0.6718
O 2.8002 -0.3846 0.1191
H 2.6628 -1.1890 -0.4149
13
Frame 34
H -1.3439 -1.6331 0.4276
C -1.6048 -0.7092 -0.0726
H -1.3438 -0.8115 -1.1194
C -0.7629 0.3951 0.5660
H -2.6784 -0.5494 0.0095
B 1.3950 0.6367 -0.2892
H -1.0955 0.6128 1.5745
H -0.8181 1.3111 -0.0139
H 1.5466 1.8225 0.0099
H 0.9931 0.5389 -1.4607
O 0.6840 -0.1768 0.6721
O 2.7984 -0.3746 0.1110
H 2.6556 -1.1864 -0.4085
13
Frame 35
H -1.3506 -1.6367 0.4264
C -1.6048 -0.7100 -0.0723
H -1.3419 -0.8110 -1.1188
C -0.7557 0.3881 0.5704
H -2.6771 -0.5422 0.0090
B 1.4200 0.6206 -0.2836
H -1.1003 0.6096 1.5753
H -0.8081 1.3039 -0.0106
H 1.5693 1.8103 0.0104
H 1.0131 0.5322 -1.4577
O 0.6617 -0.1691 0.6723
O 2.7958 -0.3640 0.1024
H 2.6486 -1.1844 -0.3999
13
Frame 36
H -1.3578 -1.6403 0.4253
C -1.6049 -0.7108 -0.0721
H -1.3400 -0.8106 -1.1181
C -0.7495 0.3818 0.5745
H -2.6759 -0.5349 0.0083
B 1.4452 0.6034 -0.2769
H -1.1049 0.6059 1.5762
H -0.8010 1.2977 -0.0070
H 1.5943 1.7966 0.0120
H 1.0350 0.5241 -1.4542
O 0.6406 -0.1616 0.6723
O 2.7926 -0.3526 0.0934
H 2.6419 -1.1832 -0.3889
13
Frame 37
H -1.3656 -1.6439 0.4245
C -1.6053 -0.7117 -0.0719
H -1.3380 -0.8105 -1.1174
C -0.7447 0.3762 0.5783
H -2.6750 -0.5276 0.0069
B 1.4706 0.5854 -0.2694
H -1.1097 0.6018 1.5774
H -0.7971 1.2926 -0.0034
H 1.6217 1.7813 0.0148
H 1.0586 0.5144 -1.4499
O 0.6212 -0.1545 0.6723
O 2.7888 -0.3406 0.0837
H 2.6358 -1.1829 -0.3748
13
Frame 38
H -1.3742 -1.6473 0.4238
C -1.6062 -0.7126 -0.0717
H -1.3359 -0.8106 -1.1166
C -0.7418 0.3715 0.5817
H -2.6745 -0.5204 0.0047
B 1.4960 0.5667 -0.2610
H -1.1152 0.5974 1.5789
H -0.7963 1.2887 0.0005
H 1.6520 1.7643 0.0192
H 1.0835 0.5030 -1.4450
O 0.6035 -0.1478 0.6723
O 2.7850 -0.3281 0.0733
H 2.6305 -1.1838 -0.3566
13
Frame 39
H -1.3840 -1.6505 0.4237
C -1.6078 -0.7135 -0.0717
H -1.3334 -0.8113 -1.1156
C -0.7413 0.3678 0.5848
H -2.6749 -0.5134 0.0011
B 1.5212 0.5476 -0.2519
H -1.1218 0.5925 1.5807
H -0.7991 1.2860 0.0045
H 1.6854 1.7456 0.0256
H 1.1094 0.4900 -1.4393
O 0.5874 -0.1415 0.6726
O 2.7821 -0.3152 0.0619
H 2.6264 -1.1864 -0.3326
13
Frame 40
H -1.3961 -1.6534 0.4245
C -1.6106 -0.7146 -0.0720
H -1.3304 -0.8129 -1.1143
C -0.7439 0.3651 0.5877
H -2.6767 -0.5066 -0.0051
B 1.5453 0.5289 -0.2420
H -1.1304 0.5870 1.5830
H -0.8061 1.2847 0.0091
H 1.7222 1.7256 0.0346
H 1.1350 0.4756 -1.4327
O 0.5730 -0.1355 0.6733
O 2.7820 -0.3027 0.0492
H 2.6239 -1.1918 -0.2994
13
Frame 41
H -1.4125 -1.6555 0.4269
C -1.6159 -0.7159 -0.0729
H -1.3262 -0.8166 -1.1123
C -0.7509 0.3634 0.5904
H -2.6810 -0.5000 -0.0159
B 1.5658 0.5128 -0.2321
H -1.1420 0.5807 1.5856
H -0.8185 1.2847 0.0143
H 1.7602 1.7060 0.0467
H 1.1565 0.4620 -1.4248
O 0.5606 -0.1298 0.6752
O 2.7883 -0.2922 0.0348
H 2.6236 -1.2012 -0.2517
13
Frame 42
H -1.4350 -1.6565 0.4315
C -1.6244 -0.7174 -0.0748
H -1.3211 -0.8240 -1.1097
C -0.7617 0.3623 0.5928
H -2.6884 -0.4929 -0.0329
B 1.5801 0.5024 -0.2236
H -1.1561 0.5739 1.5881
H -0.8342 1.2852 0.0197
H 1.7909 1.6914 0.0594
H 1.1672 0.4543 -1.4156
O 0.5509 -0.1243 0.6791
O 2.8033 -0.2858 0.0196
H 2.6254 -1.2135 -0.1883
13
Frame 43
H -1.4659 -1.6567 0.4383
C -1.6353 -0.7189 -0.0779
H -1.3155 -0.8361 -1.1065
C -0.7730 0.3604 0.5944
H -2.6973 -0.4821 -0.0557
B 1.5891 0.4977 -0.2174
H -1.1708 0.5670 1.5895
H -0.8490 1.2847 0.0239
H 1.8102 1.6836 0.0698
H 1.1677 0.4535 -1.4058
O 0.5446 -0.1192 0.6855
O 2.8227 -0.2834 0.0045
H 2.6280 -1.2236 -0.1148
13
Frame 44
H -1.5098 -1.6557 0.4473
C -1.6470 -0.7201 -0.0825
H -1.3074 -0.8549 -1.1024
C -0.7811 0.3562 0.5951
H -2.7039 -0.4612 -0.0863
B 1.5954 0.4962 -0.2128
H -1.1841 0.5600 1.5885
H -0.8582 1.2811 0.0260
H 1.8213 1.6807 0.0768
H 1.1633 0.4546 -1.3961
O 0.5422 -0.1146 0.6952
O 2.8392 -0.2823 -0.0105
H 2.6288 -1.2265 -0.0342
13
Frame 45
H -1.5614 -1.6514 0.4576
C -1.6523 -0.7198 -0.0898
H -1.2850 -0.8793 -1.0963
C -0.7826 0.3506 0.5962
H -2.7006 -0.4304 -0.1312
B 1.5956 0.4963 -0.2114
H -1.1935 0.5528 1.5868
H -0.8574 1.2762 0.0279
H 1.8217 1.6817 0.0752
H 1.1500 0.4517 -1.3884
O 0.5448 -0.1114 0.7087
O 2.8450 -0.2816 -0.0242
H 2.6223 -1.2206 0.0475
13
Frame 46
H -1.5816 -1.6489 0.4516
C -1.6438 -0.7179 -0.1012
H -1.2506 -0.8854 -1.0963
C -0.7813 0.3474 0.6026
H -2.6865 -0.4148 -0.1726
B 1.5883 0.4931 -0.2159
H -1.2014 0.5393 1.5912
H -0.8551 1.2778 0.0421
H 1.8125 1.6829 0.0552
H 1.1295 0.4337 -1.3867
O 0.5488 -0.1061 0.7239
O 2.8399 -0.2832 -0.0334
H 2.6109 -1.2128 0.1075
13
Frame 47
H -1.5702 -1.6531 0.4273
C -1.6303 -0.7155 -0.1145
H -1.2235 -0.8679 -1.1064
C -0.7822 0.3455 0.6132
H -2.6737 -0.4166 -0.1949
B 1.5794 0.4853 -0.2248
H -1.2103 0.5165 1.6020
H -0.8605 1.2849 0.0682
H 1.8024 1.6811 0.0197
H 1.1102 0.4008 -1.3896
O 0.5515 -0.0962 0.7384
O 2.8336 -0.2859 -0.0380
H 2.6053 -1.2091 0.1400
13
Frame 48
H -1.5554 -1.6586 0.3986
C -1.6184 -0.7123 -0.1277
H -1.2037 -0.8448 -1.1190
C -0.7837 0.3427 0.6244
H -2.6633 -0.4196 -0.2099
B 1.5711 0.4761 -0.2345
H -1.2184 0.4905 1.6140
H -0.8686 1.2918 0.0971
H 1.7919 1.6780 -0.0193
H 1.0934 0.3639 -1.3933
O 0.5542 -0.0855 0.7516
O 2.8289 -0.2880 -0.0412
H 2.6036 -1.2054 0.1684
13
Frame 49
H -1.5416 -1.6627 0.3703
C -1.6076 -0.7078 -0.1400
H -1.1863 -0.8201 -1.1306
C -0.7846 0.3396 0.6357
H -2.6540 -0.4203 -0.2227
B 1.5624 0.4660 -0.2453
H -1.2241 0.4638 1.6264
H -0.8761 1.2983 0.1270
H 1.7777 1.6740 -0.0598
H 1.0785 0.3244 -1.3978
O 0.5569 -0.0766 0.7627
O 2.8248 -0.2887 -0.0429
H 2.6034 -1.1978 0.2033
13
Frame 50
H -1.5318 -1.6650 0.3413
C -1.6010 -0.7006 -0.1506
H -1.1776 -0.7919 -1.1422
C -0.7847 0.3356 0.6476
H -2.6485 -0.4161 -0.2291
B 1.5541 0.4537 -0.2581
H -1.2257 0.4359 1.6402
H -0.8825 1.3045 0.1591
H 1.7575 1.6683 -0.1041
H 1.0684 0.2783 -1.4046
O 0.5598 -0.0714 0.7699
O 2.8234 -0.2859 -0.0417
H 2.6090 -1.1841 0.2471
