13
Frame 1
H -1.6230 -1.5979 0.1546
C -1.6134 -0.5501 -0.2276
H -1.1896 -0.5586 -1.2599
C -0.7555 0.3304 0.6689
H -2.6624 -0.1710 -0.2637
B 1.4401 0.4094 -0.3706
H -1.1777 0.3055 1.7156
H -0.8101 1.3920 0.2970
H 1.3932 1.6193 -0.4218
H 1.0906 -0.1265 -1.4096
O 0.5564 -0.1192 0.7529
O 2.7407 -0.0069 0.0723
H 2.6107 -0.9266 0.2918
13
Frame 2
H -1.6161 -1.6065 0.1722
C -1.6104 -0.5617 -0.2165
H -1.1851 -0.5746 -1.2479
C -0.7575 0.3282 0.6757
H -2.6608 -0.1880 -0.2565
B 1.4545 0.4270 -0.3873
H -1.1870 0.3099 1.7194
H -0.8180 1.3862 0.2953
H 1.4250 1.6332 -0.4243
H 1.0775 -0.0965 -1.4118
O 0.5532 -0.1130 0.7652
O 2.7366 -0.0149 0.0518
H 2.5881 -0.9296 0.2646
13
Frame 3
H -1.6092 -1.6151 0.1897
C -1.6074 -0.5732 -0.2054
H -1.1806 -0.5907 -1.2359
C -0.7596 0.3259 0.6825
H -2.6592 -0.2050 -0.2494
B 1.4689 0.4447 -0.4040
H -1.1964 0.3144 1.7233
H -0.8258 1.3805 0.2937
H 1.4568 1.6472 -0.4267
H 1.0645 -0.0665 -1.4140
O 0.5500 -0.1068 0.7774
O 2.7325 -0.0229 0.0312
H 2.5654 -0.9327 0.2375
13
Frame 4
H -1.6023 -1.6237 0.2073
C -1.6044 -0.5848 -0.1944
H -1.1760 -0.6067 -1.2239
C -0.7616 0.3237 0.6893
H -2.6576 -0.2220 -0.2422
B 1.4833 0.4623 -0.4207
H -1.2057 0.3188 1.7271
H -0.8337 1.3747 0.2920
H 1.4887 1.6611 -0.4292
H 1.0514 -0.0366 -1.4162
O 0.5469 -0.1005 0.7897
O 2.7284 -0.0309 0.0107
H 2.5428 -0.9357 0.2103
13
Frame 5
H -1.5954 -1.6323 0.2248
C -1.6014 -0.5963 -0.1833
H -1.1715 -0.6227 -1.2119
C -0.7637 0.3215 0.6962
H -2.6560 -0.2390 -0.2350
B 1.4977 0.4799 -0.4374
H -1.2150 0.3233 1.7310
H -0.8416 1.3689 0.2903
H 1.5205 1.6750 -0.4316
H 1.0383 -0.0066 -1.4184
O 0.5437 -0.0943 0.8019
O 2.7243 -0.0388 -0.0099
H 2.5201 -0.9387 0.1832
13
Frame 6
H -1.5885 -1.6409 0.2424
C -1.5984 -0.6079 -0.1722
H -1.1670 -0.6388 -1.1998
C -0.7657 0.3192 0.7030
H -2.6544 -0.2560 -0.2279
B 1.5121 0.4976 -0.4541
H -1.2244 0.3277 1.7348
H -0.8494 1.3632 0.2886
H 1.5523 1.6889 -0.4341
H 1.0252 0.0234 -1.4205
O 0.5405 -0.0881 0.8142
O 2.7202 -0.0468 -0.0304
H 2.4975 -0.9417 0.1560
13
Frame 7
H -1.5816 -1.6495 0.2599
C -1.5954 -0.6194 -0.1611
H -1.1625 -0.6548 -1.1878
C -0.7678 0.3170 0.7098
H -2.6528 -0.2730 -0.2207
B 1.5265 0.5152 -0.4708
H -1.2337 0.3322 1.7387
H -0.8573 1.3574 0.2870
H 1.5841 1.7029 -0.4365
H 1.0122 0.0534 -1.4227
O 0.5373 -0.0819 0.8264
O 2.7161 -0.0548 -0.0510
H 2.4748 -0.9448 0.1289
13
Frame 8
H -1.5747 -1.6581 0.2775
C -1.5924 -0.6310 -0.1500
H -1.1580 -0.6709 -1.1758
C -0.7698 0.3147 0.7166
H -2.6512 -0.2900 -0.2136
B 1.5409 0.5329 -0.4875
H -1.2431 0.3366 1.7425
H -0.8651 1.3516 0.2853
H 1.6159 1.7168 -0.4390
H 0.9991 0.0834 -1.4249
O 0.5341 -0.0757 0.8387
O 2.7120 -0.0628 -0.0715
H 2.4522 -0.9478 0.1017
13
Frame 9
H -1.5678 -1.6667 0.2950
C -1.5894 -0.6426 -0.1390
H -1.1534 -0.6869 -1.1638
C -0.7718 0.3125 0.7234
H -2.6496 -0.3070 -0.2064
B 1.5553 0.5505 -0.5042
H -1.2524 0.3410 1.7464
H -0.8730 1.3459 0.2836
H 1.6478 1.7307 -0.4414
H 0.9860 0.1133 -1.4271
O 0.5310 -0.0694 0.8510
O 2.7079 -0.0708 -0.0920
H 2.4295 -0.9508 0.0745
13
Frame 10
H -1.5609 -1.6753 0.3126
C -1.5864 -0.6541 -0.1279
H -1.1489 -0.7029 -1.1518
C -0.7739 0.3103 0.7302
H -2.6480 -0.3240 -0.1992
B 1.5697 0.5681 -0.5209
H -1.2617 0.3455 1.7502
H -0.8809 1.3401 0.2819
H 1.6796 1.7446 -0.4439
H 0.9729 0.1433 -1.4293
O 0.5278 -0.0632 0.8632
O 2.7038 -0.0788 -0.1126
H 2.4069 -0.9538 0.0474
13
Frame 11
H -1.5540 -1.6838 0.3301
C -1.5834 -0.6657 -0.1168
H -1.1444 -0.7190 -1.1398
C -0.7759 0.3080 0.7371
H -2.6464 -0.3409 -0.1921
B 1.5841 0.5858 -0.5377
H -1.2711 0.3499 1.7541
H -0.8887 1.3343 0.2803
H 1.7114 1.7586 -0.4463
H 0.9599 0.1733 -1.4315
O 0.5246 -0.0570 0.8755
O 2.6996 -0.0867 -0.1331
H 2.3842 -0.9569 0.0202
13
Frame 12
H -1.5471 -1.6924 0.3477
C -1.5804 -0.6772 -0.1057
H -1.1399 -0.7350 -1.1278
C -0.7780 0.3058 0.7439
H -2.6448 -0.3579 -0.1849
B 1.5985 0.6034 -0.5544
H -1.2804 0.3544 1.7579
H -0.8966 1.3285 0.2786
H 1.7432 1.7725 -0.4488
H 0.9468 0.2033 -1.4337
O 0.5214 -0.0508 0.8877
O 2.6955 -0.0947 -0.1537
H 2.3616 -0.9599 -0.0069
13
Frame 13
H -1.5402 -1.7010 0.3652
C -1.5774 -0.6888 -0.0947
H -1.1353 -0.7510 -1.1158
C -0.7800 0.3036 0.7507
H -2.6432 -0.3749 -0.1777
B 1.6129 0.6210 -0.5711
H -1.2897 0.3588 1.7618
H -0.9045 1.3228 0.2769
H 1.7751 1.7864 -0.4512
H 0.9337 0.2332 -1.4359
O 0.5183 -0.0445 0.9000
O 2.6914 -0.1027 -0.1742
H 2.3389 -0.9629 -0.0341
13
Frame 14
H -1.5333 -1.7096 0.3828
C -1.5744 -0.7004 -0.0836
H -1.1308 -0.7671 -1.1038
C -0.7820 0.3013 0.7575
H -2.6416 -0.3919 -0.1706
B 1.6273 0.6387 -0.5878
H -1.2991 0.3632 1.7656
H -0.9123 1.3170 0.2752
H 1.8069 1.8003 -0.4537
H 0.9206 0.2632 -1.4381
O 0.5151 -0.0383 0.9123
O 2.6873 -0.1107 -0.1947
H 2.3163 -0.9659 -0.0613
13
Frame 15
H -1.5264 -1.7182 0.4003
C -1.5714 -0.7119 -0.0725
H -1.1263 -0.7831 -1.0918
C -0.7841 0.2991 0.7643
H -2.6400 -0.4089 -0.1634
B 1.6417 0.6563 -0.6045
H -1.3084 0.3677 1.7695
H -0.9202 1.3112 0.2736
H 1.8387 1.8143 -0.4561
H 0.9076 0.2932 -1.4403
O 0.5119 -0.0321 0.9245
O 2.6832 -0.1187 -0.2153
H 2.2936 -0.9690 -0.0884
13
Frame 16
H -1.5195 -1.7268 0.4179
C -1.5684 -0.7235 -0.0614
H -1.1218 -0.7992 -1.0797
C -0.7861 0.2968 0.7711
H -2.6384 -0.4259 -0.1563
B 1.6561 0.6740 -0.6212
H -1.3178 0.3721 1.7733
H -0.9280 1.3055 0.2719
H 1.8705 1.8282 -0.4586
H 0.8945 0.3232 -1.4424
O 0.5087 -0.0259 0.9368
O 2.6791 -0.1267 -0.2358
H 2.2710 -0.9720 -0.1156
13
Frame 17
H -1.5126 -1.7354 0.4354
C -1.5654 -0.7350 -0.0503
H -1.1173 -0.8152 -1.0677
C -0.7882 0.2946 0.7780
H -2.6368 -0.4429 -0.1491
B 1.6705 0.6916 -0.6379
H -1.3271 0.3766 1.7772
H -0.9359 1.2997 0.2702
H 1.9023 1.8421 -0.4610
H 0.8814 0.3532 -1.4446
O 0.5055 -0.0197 0.9490
O 2.6750 -0.1346 -0.2564
H 2.2483 -0.9750 -0.1427
13
Frame 18
H -1.5057 -1.7440 0.4530
C -1.5624 -0.7466 -0.0393
H -1.1127 -0.8312 -1.0557
C -0.7902 0.2924 0.7848
H -2.6352 -0.4599 -0.1419
B 1.6849 0.7092 -0.6546
H -1.3364 0.3810 1.7810
H -0.9438 1.2939 0.2685
H 1.9342 1.8560 -0.4635
H 0.8683 0.3831 -1.4468
O 0.5024 -0.0134 0.9613
O 2.6709 -0.1426 -0.2769
H 2.2257 -0.9780 -0.1699
13
Frame 19
H -1.4988 -1.7526 0.4705
C -1.5594 -0.7581 -0.0282
H -1.1082 -0.8473 -1.0437
C -0.7923 0.2901 0.7916
H -2.6336 -0.4769 -0.1348
B 1.6993 0.7269 -0.6713
H -1.3458 0.3855 1.7849
H -0.9516 1.2882 0.2669
H 1.9660 1.8700 -0.4659
H 0.8553 0.4131 -1.4490
O 0.4992 -0.0072 0.9735
O 2.6668 -0.1506 -0.2975
H 2.2030 -0.9811 -0.1970
13
Frame 20
H -1.4919 -1.7612 0.4881
C -1.5564 -0.7697 -0.0171
H -1.1037 -0.8633 -1.0317
C -0.7943 0.2879 0.7984
H -2.6320 -0.4939 -0.1276
B 1.7137 0.7445 -0.6880
H -1.3551 0.3899 1.7887
H -0.9595 1.2824 0.2652
H 1.9978 1.8839 -0.4684
H 0.8422 0.4431 -1.4512
O 0.4960 -0.0010 0.9858
O 2.6627 -0.1586 -0.3180
H 2.1804 -0.9841 -0.2242
