18
P1 HEAT OF FORMATION =  170.88386 KCAL =  714.97757 KJ
O               -2.4590      0.4416     -0.2046
C               -1.3364     -0.0131     -0.1587
C                0.7308      0.2745      1.2119
C                0.8514      0.2717     -1.2903
C                1.5326     -0.1408     -0.0040
C               -0.5523     -0.2953     -1.4057
C               -0.6682     -0.3148      1.1671
H                0.6711      1.3935      1.2684
H                0.8124      1.3912     -1.3618
H                1.6914     -1.2517      0.0059
H               -0.5123     -1.4156     -1.5241
H               -0.6203     -1.3933      1.2936
H                1.2425     -0.0820      2.1460
H                1.4479     -0.0966     -2.1690
H                2.5468      0.3402      0.0460
H               -1.0750      0.1283     -2.3064
H               -1.3081      0.1164      1.9967
H               -2.9953      0.6458      1.2889
18
P2 HEAT OF FORMATION =  167.64528 KCAL =  701.42738 KJ
O               -2.4651      0.4341     -0.2058
C               -1.3331     -0.0127     -0.1509
C                0.7353      0.2767      1.2123
C                0.8532      0.2715     -1.2894
C                1.5347     -0.1421     -0.0037
C               -0.5531     -0.2893     -1.4015
C               -0.6665     -0.3060      1.1696
H                0.6803      1.3960      1.2685
H                0.8188      1.3911     -1.3624
H                1.6903     -1.2535      0.0069
H               -0.5176     -1.4094     -1.5261
H               -0.6171     -1.4019      1.2989
H                1.2458     -0.0815      2.1464
H                1.4464     -0.1005     -2.1688
H                2.5505      0.3359      0.0446
H               -1.0776      0.1401     -2.2984
H               -1.2996      0.1207      2.0038
H               -3.0257      0.6309      1.2561
18
P3 HEAT OF FORMATION =  164.65891 KCAL =  688.93239 KJ
O               -2.4721      0.4231     -0.2084
C               -1.3300     -0.0136     -0.1440
C                0.7403      0.2774      1.2130
C                0.8538      0.2735     -1.2881
C                1.5366     -0.1435     -0.0042
C               -0.5534     -0.2858     -1.3974
C               -0.6651     -0.2961      1.1719
H                0.6918      1.3970      1.2714
H                0.8204      1.3933     -1.3588
H                1.6883     -1.2555      0.0053
H               -0.5187     -1.4057     -1.5258
H               -0.6163     -1.4094      1.3056
H                1.2493     -0.0852      2.1462
H                1.4447     -0.0976     -2.1694
H                2.5541      0.3308      0.0427
H               -1.0804      0.1460     -2.2918
H               -1.2920      0.1282      2.0096
H               -3.0513      0.6230      1.2221
18
P4 HEAT OF FORMATION =  161.91123 KCAL =  677.43610 KJ
O               -2.4795      0.4129     -0.2096
C               -1.3275     -0.0142     -0.1383
C                0.7435      0.2793      1.2137
C                0.8550      0.2740     -1.2870
C                1.5377     -0.1445     -0.0036
C               -0.5541     -0.2811     -1.3943
C               -0.6648     -0.2866      1.1729
H                0.7002      1.3991      1.2728
H                0.8246      1.3938     -1.3580
H                1.6865     -1.2569      0.0062
H               -0.5224     -1.4007     -1.5284
H               -0.6154     -1.4172      1.3107
H                1.2505     -0.0860      2.1469
H                1.4437     -0.0990     -2.1689
H                2.5566      0.3270      0.0422
H               -1.0825      0.1554     -2.2857
H               -1.2869      0.1344      2.0140
H               -3.0652      0.6104      1.1945
18
P5 HEAT OF FORMATION =  159.38510 KCAL =  666.86680 KJ
O               -2.4871      0.4005     -0.2115
C               -1.3249     -0.0153     -0.1325
C                0.7473      0.2806      1.2145
C                0.8558      0.2751     -1.2858
C                1.5390     -0.1457     -0.0034
C               -0.5546     -0.2770     -1.3911
C               -0.6643     -0.2763      1.1742
H                0.7102      1.4007      1.2752
H                0.8276      1.3951     -1.3559
H                1.6845     -1.2585      0.0061
H               -0.5250     -1.3961     -1.5305
H               -0.6156     -1.4241      1.3175
H                1.2523     -0.0887      2.1472
H                1.4425     -0.0985     -2.1687
H                2.5594      0.3228      0.0412
H               -1.0849      0.1636     -2.2795
H               -1.2816      0.1429      2.0181
H               -3.0808      0.5987      1.1652
18
P6 HEAT OF FORMATION =  157.06694 KCAL =  657.16762 KJ
O               -2.4969      0.3822     -0.2134
C               -1.3225     -0.0162     -0.1273
C                0.7516      0.2828      1.2150
C                0.8572      0.2769     -1.2844
C                1.5399     -0.1484     -0.0033
C               -0.5548     -0.2711     -1.3885
C               -0.6640     -0.2630      1.1753
H                0.7226      1.4031      1.2763
H                0.8322      1.3972     -1.3522
H                1.6785     -1.2621      0.0058
H               -0.5277     -1.3898     -1.5342
H               -0.6174     -1.4277      1.3270
H                1.2540     -0.0903      2.1475
H                1.4418     -0.0966     -2.1687
H                2.5633      0.3136      0.0403
H               -1.0867      0.1745     -2.2737
H               -1.2765      0.1571      2.0209
H               -3.0949      0.5778      1.1376
18
P7 HEAT OF FORMATION =  154.94079 KCAL =  648.27181 KJ
O               -2.5043      0.3692     -0.2151
C               -1.3201     -0.0177     -0.1225
C                0.7546      0.2839      1.2160
C                0.8577      0.2781     -1.2831
C                1.5408     -0.1491     -0.0029
C               -0.5553     -0.2678     -1.3857
C               -0.6641     -0.2527      1.1758
H                0.7318      1.4043      1.2795
H                0.8341      1.3984     -1.3501
H                1.6770     -1.2631      0.0057
H               -0.5297     -1.3859     -1.5369
H               -0.6189     -1.4345      1.3332
H                1.2547     -0.0937      2.1480
H                1.4408     -0.0954     -2.1684
H                2.5652      0.3106      0.0397
H               -1.0889      0.1814     -2.2681
H               -1.2728      0.1657      2.0238
H               -3.1027      0.5681      1.1111
18
P8 HEAT OF FORMATION =  152.99620 KCAL =  640.13565 KJ
O               -2.5127      0.3533     -0.2164
C               -1.3177     -0.0188     -0.1178
C                0.7579      0.2858      1.2167
C                0.8589      0.2791     -1.2819
C                1.5416     -0.1509     -0.0024
C               -0.5557     -0.2626     -1.3833
C               -0.6642     -0.2406      1.1762
H                0.7421      1.4064      1.2811
H                0.8383      1.3996     -1.3479
H                1.6732     -1.2653      0.0063
H               -0.5331     -1.3801     -1.5415
H               -0.6213     -1.4393      1.3414
H                1.2552     -0.0955      2.1486
H                1.4402     -0.0953     -2.1679
H                2.5679      0.3046      0.0394
H               -1.0907      0.1921     -2.2623
H               -1.2692      0.1778      2.0259
H               -3.1108      0.5496      1.0860
18
P9 HEAT OF FORMATION =  151.22197 KCAL =  632.71227 KJ
O               -2.5211      0.3375     -0.2175
C               -1.3154     -0.0194     -0.1131
C                0.7610      0.2879      1.2174
C                0.8602      0.2800     -1.2807
C                1.5422     -0.1527     -0.0018
C               -0.5562     -0.2572     -1.3810
C               -0.6644     -0.2283      1.1764
H                0.7523      1.4087      1.2827
H                0.8431      1.4005     -1.3463
H                1.6693     -1.2676      0.0071
H               -0.5370     -1.3739     -1.5462
H               -0.6236     -1.4439      1.3489
H                1.2555     -0.0970      2.1493
H                1.4397     -0.0959     -2.1673
H                2.5705      0.2986      0.0391
H               -1.0924      0.2032     -2.2564
H               -1.2658      0.1897      2.0280
H               -3.1181      0.5298      1.0615
18
P10 HEAT OF FORMATION =  149.60881 KCAL =  625.96281 KJ
O               -2.5291      0.3213     -0.2185
C               -1.3130     -0.0202     -0.1085
C                0.7641      0.2898      1.2181
C                0.8616      0.2808     -1.2796
C                1.5429     -0.1544     -0.0012
C               -0.5566     -0.2517     -1.3787
C               -0.6647     -0.2159      1.1766
H                0.7624      1.4107      1.2842
H                0.8479      1.4014     -1.3446
H                1.6655     -1.2698      0.0078
H               -0.5409     -1.3676     -1.5512
H               -0.6265     -1.4484      1.3571
H                1.2558     -0.0986      2.1499
H                1.4392     -0.0964     -2.1668
H                2.5730      0.2927      0.0389
H               -1.0941      0.2145     -2.2504
H               -1.2627      0.2021      2.0297
H               -3.1249      0.5096      1.0372
18
P11 HEAT OF FORMATION =  148.15058 KCAL =  619.86159 KJ
O               -2.5372      0.3039     -0.2194
C               -1.3107     -0.0209     -0.1041
C                0.7671      0.2920      1.2188
C                0.8630      0.2815     -1.2785
C                1.5435     -0.1563     -0.0006
C               -0.5570     -0.2460     -1.3765
C               -0.6650     -0.2029      1.1766
H                0.7728      1.4129      1.2857
H                0.8531      1.4022     -1.3431
H                1.6615     -1.2722      0.0088
H               -0.5452     -1.3608     -1.5569
H               -0.6299     -1.4521      1.3656
H                1.2558     -0.1001      2.1507
H                1.4388     -0.0972     -2.1662
H                2.5755      0.2865      0.0388
H               -1.0957      0.2266     -2.2443
H               -1.2597      0.2154      2.0311
H               -3.1308      0.4875      1.0136
18
P12 HEAT OF FORMATION =  146.84288 KCAL =  614.39016 KJ
O               -2.5447      0.2890     -0.2200
C               -1.3083     -0.0211     -0.0997
C                0.7697      0.2942      1.2196
C                0.8643      0.2819     -1.2775
C                1.5440     -0.1576      0.0003
C               -0.5576     -0.2406     -1.3742
C               -0.6655     -0.1908      1.1762
H                0.7819      1.4152      1.2874
H                0.8581      1.4027     -1.3424
H                1.6582     -1.2739      0.0102
H               -0.5496     -1.3545     -1.5616
H               -0.6326     -1.4570      1.3715
H                1.2554     -0.1013      2.1515
H                1.4384     -0.0990     -2.1654
H                2.5776      0.2816      0.0389
H               -1.0973      0.2377     -2.2384
H               -1.2572      0.2261      2.0329
H               -3.1348      0.4675      0.9908
18
P13 HEAT OF FORMATION =  145.68350 KCAL =  609.53932 KJ
O               -2.5522      0.2717     -0.2207
C               -1.3060     -0.0219     -0.0954
C                0.7724      0.2961      1.2203
C                0.8655      0.2827     -1.2764
C                1.5444     -0.1592      0.0010
C               -0.5580     -0.2354     -1.3722
C               -0.6659     -0.1780      1.1758
H                0.7920      1.4170      1.2895
H                0.8625      1.4036     -1.3407
H                1.6545     -1.2759      0.0111
H               -0.5537     -1.3482     -1.5672
H               -0.6365     -1.4609      1.3794
H                1.2549     -0.1033      2.1522
H                1.4380     -0.0994     -2.1647
H                2.5798      0.2761      0.0388
H               -1.0989      0.2489     -2.2325
H               -1.2549      0.2390      2.0337
H               -3.1382      0.4471      0.9680
18
P14 HEAT OF FORMATION =  144.67309 KCAL =  605.31179 KJ
O               -2.5599      0.2529     -0.2211
C               -1.3037     -0.0230     -0.0916
C                0.7749      0.2979      1.2212
C                0.8666      0.2836     -1.2752
C                1.5448     -0.1607      0.0017
C               -0.5583     -0.2306     -1.3704
C               -0.6665     -0.1648      1.1750
H                0.8021      1.4187      1.2918
H                0.8665      1.4045     -1.3388
H                1.6508     -1.2778      0.0120
H               -0.5574     -1.3421     -1.5734
H               -0.6415     -1.4644      1.3870
H                1.2540     -0.1057      2.1530
H                1.4379     -0.0994     -2.1640
H                2.5817      0.2707      0.0390
H               -1.1004      0.2599     -2.2268
H               -1.2529      0.2526      2.0340
H               -3.1387      0.4276      0.9466
18
P15 HEAT OF FORMATION =  143.81456 KCAL =  601.71968 KJ
O               -2.5683      0.2285     -0.2215
C               -1.3011     -0.0238     -0.0878
C                0.7786      0.2996      1.2218
C                0.8684      0.2849     -1.2742
C                1.5453     -0.1634      0.0020
C               -0.5584     -0.2236     -1.3687
C               -0.6669     -0.1485      1.1742
H                0.8154      1.4201      1.2941
H                0.8726      1.4059     -1.3362
H                1.6454     -1.2811      0.0120
H               -0.5620     -1.3336     -1.5811
H               -0.6506     -1.4639      1.3998
H                1.2535     -0.1092      2.1534
H                1.4379     -0.0990     -2.1637
H                2.5846      0.2624      0.0387
H               -1.1016      0.2745     -2.2203
H               -1.2500      0.2733      2.0329
H               -3.1429      0.3969      0.9245
18
P16 HEAT OF FORMATION =  143.10918 KCAL =  598.76838 KJ
O               -2.5757      0.2072     -0.2213
C               -1.2986     -0.0241     -0.0836
C                0.7811      0.3028      1.2224
C                0.8702      0.2852     -1.2730
C                1.5453     -0.1657      0.0032
C               -0.5589     -0.2169     -1.3668
C               -0.6672     -0.1341      1.1734
H                0.8257      1.4231      1.2946
H                0.8793      1.4062     -1.3351
H                1.6393     -1.2838      0.0142
H               -0.5678     -1.3251     -1.5888
H               -0.6550     -1.4662      1.4061
H                1.2524     -0.1090      2.1545
H                1.4379     -0.1010     -2.1626
H                2.5869      0.2544      0.0392
H               -1.1027      0.2892     -2.2136
H               -1.2481      0.2871      2.0335
H               -3.1441      0.3709      0.9037
18
P17 HEAT OF FORMATION =  142.56871 KCAL =  596.50707 KJ
O               -2.5824      0.1875     -0.2209
C               -1.2961     -0.0245     -0.0796
C                0.7834      0.3056      1.2231
C                0.8717      0.2854     -1.2719
C                1.5455     -0.1675      0.0043
C               -0.5593     -0.2110     -1.3650
C               -0.6676     -0.1205      1.1723
H                0.8352      1.4257      1.2957
H                0.8850      1.4064     -1.3341
H                1.6345     -1.2859      0.0161
H               -0.5732     -1.3174     -1.5959
H               -0.6598     -1.4694      1.4119
H                1.2512     -0.1092      2.1557
H                1.4378     -0.1030     -2.1615
H                2.5889      0.2480      0.0397
H               -1.1040      0.3026     -2.2068
H               -1.2464      0.2997      2.0340
H               -3.1445      0.3475      0.8831
18
P18 HEAT OF FORMATION =  142.20090 KCAL =  594.96816 KJ
O               -2.5888      0.1683     -0.2203
C               -1.2936     -0.0247     -0.0755
C                0.7855      0.3084      1.2239
C                0.8731      0.2854     -1.2709
C                1.5456     -0.1690      0.0055
C               -0.5598     -0.2052     -1.3631
C               -0.6680     -0.1072      1.1711
H                0.8443      1.4283      1.2968
H                0.8909      1.4064     -1.3338
H                1.6304     -1.2878      0.0184
H               -0.5788     -1.3097     -1.6030
H               -0.6648     -1.4730      1.4167
H                1.2497     -0.1094      2.1569
H                1.4376     -0.1056     -2.1604
H                2.5907      0.2424      0.0403
H               -1.1051      0.3161     -2.2001
H               -1.2449      0.3113      2.0345
H               -3.1440      0.3249      0.8628
18
P19 HEAT OF FORMATION =  142.01649 KCAL =  594.19659 KJ
O               -2.5950      0.1477     -0.2194
C               -1.2910     -0.0251     -0.0715
C                0.7876      0.3113      1.2247
C                0.8746      0.2855     -1.2699
C                1.5457     -0.1706      0.0067
C               -0.5603     -0.1993     -1.3612
C               -0.6684     -0.0933      1.1697
H                0.8536      1.4309      1.2980
H                0.8968      1.4064     -1.3332
H                1.6257     -1.2897      0.0207
H               -0.5846     -1.3016     -1.6105
H               -0.6703     -1.4760      1.4214
H                1.2481     -0.1095      2.1581
H                1.4376     -0.1080     -2.1592
H                2.5925      0.2363      0.0409
H               -1.1063      0.3299     -2.1930
H               -1.2434      0.3237      2.0348
H               -3.1430      0.3016      0.8430
18
P20 HEAT OF FORMATION =  142.02945 KCAL =  594.25080 KJ
O               -2.6006      0.1297     -0.2184
C               -1.2884     -0.0252     -0.0674
C                0.7894      0.3140      1.2257
C                0.8758      0.2854     -1.2689
C                1.5458     -0.1715      0.0080
C               -0.5608     -0.1944     -1.3593
C               -0.6689     -0.0804      1.1682
H                0.8621      1.4332      1.2999
H                0.9017      1.4062     -1.3330
H                1.6225     -1.2909      0.0230
H               -0.5898     -1.2948     -1.6166
H               -0.6754     -1.4804      1.4234
H                1.2462     -0.1100      2.1594
H                1.4374     -0.1106     -2.1579
H                2.5939      0.2321      0.0416
H               -1.1077      0.3417     -2.1864
H               -1.2422      0.3337      2.0356
H               -3.1409      0.2823      0.8232
18
P21 HEAT OF FORMATION =  142.25613 KCAL =  595.19925 KJ
O               -2.6057      0.1144     -0.2172
C               -1.2858     -0.0248     -0.0631
C                0.7910      0.3166      1.2268
C                0.8767      0.2851     -1.2679
C                1.5460     -0.1718      0.0094
C               -0.5614     -0.1904     -1.3569
C               -0.6693     -0.0682      1.1667
H                0.8696      1.4355      1.3022
H                0.9058      1.4057     -1.3334
H                1.6205     -1.2913      0.0257
H               -0.5948     -1.2891     -1.6210
H               -0.6800     -1.4862      1.4217
H                1.2442     -0.1105      2.1608
H                1.4370     -0.1135     -2.1565
H                2.5950      0.2297      0.0423
H               -1.1092      0.3514     -2.1800
H               -1.2410      0.3409      2.0372
H               -3.1385      0.2666      0.8034
18
P22 HEAT OF FORMATION =  142.71149 KCAL =  597.10446 KJ
O               -2.6111      0.0931     -0.2154
C               -1.2832     -0.0253     -0.0591
C                0.7926      0.3204      1.2276
C                0.8782      0.2845     -1.2668
C                1.5459     -0.1733      0.0111
C               -0.5619     -0.1844     -1.3552
C               -0.6697     -0.0545      1.1649
H                0.8779      1.4389      1.3025
H                0.9125      1.4049     -1.3336
H                1.6154     -1.2931      0.0292
H               -0.6016     -1.2803     -1.6299
H               -0.6849     -1.4898      1.4231
H                1.2419     -0.1087      2.1624
H                1.4370     -0.1176     -2.1549
H                2.5966      0.2235      0.0434
H               -1.1101      0.3668     -2.1721
H               -1.2401      0.3512      2.0376
H               -3.1355      0.2435      0.7850
18
P23 HEAT OF FORMATION =  143.41767 KCAL =  600.05910 KJ
O               -2.6158      0.0775     -0.2136
C               -1.2805     -0.0250     -0.0548
C                0.7940      0.3235      1.2287
C                0.8791      0.2839     -1.2658
C                1.5460     -0.1735      0.0127
C               -0.5626     -0.1806     -1.3529
C               -0.6701     -0.0422      1.1632
H                0.8851      1.4416      1.3046
H                0.9165      1.4042     -1.3342
H                1.6132     -1.2934      0.0323
H               -0.6067     -1.2745     -1.6346
H               -0.6894     -1.4959      1.4192
H                1.2396     -0.1084      2.1640
H                1.4366     -0.1209     -2.1533
H                2.5976      0.2211      0.0443
H               -1.1115      0.3767     -2.1653
H               -1.2392      0.3576      2.0392
H               -3.1319      0.2284      0.7661
18
P24 HEAT OF FORMATION =  144.39577 KCAL =  604.15148 KJ
O               -2.6204      0.0603     -0.2112
C               -1.2779     -0.0247     -0.0503
C                0.7952      0.3274      1.2299
C                0.8802      0.2829     -1.2647
C                1.5460     -0.1739      0.0147
C               -0.5633     -0.1762     -1.3506
C               -0.6704     -0.0296      1.1615
H                0.8919      1.4451      1.3057
H                0.9219      1.4029     -1.3354
H                1.6102     -1.2939      0.0365
H               -0.6130     -1.2675     -1.6405
H               -0.6933     -1.5020      1.4129
H                1.2371     -0.1064      2.1660
H                1.4363     -0.1258     -2.1513
H                2.5986      0.2179      0.0456
H               -1.1126      0.3887     -2.1577
H               -1.2384      0.3632      2.0412
H               -3.1281      0.2118      0.7477
18
P25 HEAT OF FORMATION =  145.66981 KCAL =  609.48207 KJ
O               -2.6246      0.0450     -0.2087
C               -1.2753     -0.0244     -0.0456
C                0.7963      0.3313      1.2311
C                0.8810      0.2817     -1.2635
C                1.5460     -0.1739      0.0168
C               -0.5640     -0.1726     -1.3480
C               -0.6706     -0.0175      1.1599
H                0.8981      1.4487      1.3070
H                0.9264      1.4014     -1.3367
H                1.6079     -1.2940      0.0408
H               -0.6189     -1.2615     -1.6453
H               -0.6974     -1.5091      1.4036
H                1.2348     -0.1043      2.1680
H                1.4359     -0.1306     -2.1492
H                2.5995      0.2157      0.0468
H               -1.1140      0.3990     -2.1502
H               -1.2374      0.3673      2.0437
H               -3.1238      0.1979      0.7295
18
P26 HEAT OF FORMATION =  147.26592 KCAL =  616.16017 KJ
O               -2.6288      0.0288     -0.2055
C               -1.2726     -0.0240     -0.0406
C                0.7974      0.3358      1.2325
C                0.8820      0.2801     -1.2623
C                1.5460     -0.1739      0.0193
C               -0.5648     -0.1689     -1.3453
C               -0.6708     -0.0050      1.1584
H                0.9043      1.4529      1.3078
H                0.9314      1.3995     -1.3384
H                1.6053     -1.2940      0.0460
H               -0.6254     -1.2551     -1.6505
H               -0.7012     -1.5162      1.3904
H                1.2323     -0.1011      2.1704
H                1.4354     -0.1365     -2.1468
H                2.6004      0.2133      0.0483
H               -1.1152      0.4102     -2.1422
H               -1.2365      0.3706      2.0466
H               -3.1193      0.1835      0.7119
18
P27 HEAT OF FORMATION =  149.21302 KCAL =  624.30684 KJ
O               -2.6327      0.0138     -0.2019
C               -1.2700     -0.0236     -0.0354
C                0.7985      0.3403      1.2341
C                0.8826      0.2783     -1.2609
C                1.5461     -0.1733      0.0218
C               -0.5656     -0.1662     -1.3423
C               -0.6709      0.0077      1.1570
H                0.9103      1.4571      1.3095
H                0.9354      1.3973     -1.3403
H                1.6039     -1.2935      0.0514
H               -0.6313     -1.2500     -1.6542
H               -0.7053     -1.5238      1.3726
H                1.2297     -0.0983      2.1729
H                1.4348     -0.1424     -2.1442
H                2.6011      0.2123      0.0497
H               -1.1166      0.4193     -2.1342
H               -1.2355      0.3728      2.0500
H               -3.1145      0.1723      0.6943
18
P28 HEAT OF FORMATION =  151.54159 KCAL =  634.04958 KJ
O               -2.6365     -0.0021     -0.1975
C               -1.2673     -0.0232     -0.0296
C                0.7996      0.3457      1.2359
C                0.8833      0.2761     -1.2593
C                1.5462     -0.1728      0.0248
C               -0.5666     -0.1635     -1.3390
C               -0.6708      0.0211      1.1559
H                0.9164      1.4621      1.3105
H                0.9399      1.3947     -1.3424
H                1.6018     -1.2931      0.0579
H               -0.6379     -1.2446     -1.6579
H               -0.7097     -1.5312      1.3486
H                1.2271     -0.0939      2.1759
H                1.4342     -0.1492     -2.1412
H                2.6019      0.2107      0.0514
H               -1.1180      0.4289     -2.1257
H               -1.2342      0.3740      2.0542
H               -3.1095      0.1604      0.6775
18
P29 HEAT OF FORMATION =  154.28304 KCAL =  645.51980 KJ
O               -2.6399     -0.0211     -0.1917
C               -1.2645     -0.0237     -0.0230
C                0.8010      0.3524      1.2380
C                0.8840      0.2730     -1.2573
C                1.5462     -0.1723      0.0285
C               -0.5676     -0.1612     -1.3351
C               -0.6703      0.0362      1.1552
H                0.9230      1.4685      1.3111
H                0.9448      1.3911     -1.3450
H                1.5991     -1.2926      0.0661
H               -0.6453     -1.2389     -1.6626
H               -0.7156     -1.5375      1.3146
H                1.2247     -0.0878      2.1795
H                1.4335     -0.1578     -2.1374
H                2.6029      0.2087      0.0534
H               -1.1194      0.4397     -2.1152
H               -1.2324      0.3751      2.0594
H               -3.1042      0.1481      0.6614
18
P30 HEAT OF FORMATION =  157.46534 KCAL =  658.83451 KJ
O               -2.6432     -0.0415     -0.1833
C               -1.2616     -0.0246     -0.0143
C                0.8031      0.3608      1.2411
C                0.8842      0.2686     -1.2545
C                1.5465     -0.1710      0.0334
C               -0.5688     -0.1610     -1.3297
C               -0.6689      0.0545      1.1557
H                0.9309      1.4766      1.3126
H                0.9488      1.3860     -1.3484
H                1.5975     -1.2912      0.0769
H               -0.6526     -1.2354     -1.6646
H               -0.7252     -1.5414      1.2561
H                1.2226     -0.0800      2.1843
H                1.4323     -0.1687     -2.1323
H                2.6039      0.2082      0.0556
H               -1.1215      0.4476     -2.1033
H               -1.2294      0.3737      2.0676
H               -3.0986      0.1388      0.6470
