
  ACD/Labs11221116073D

  9  8  0  0  0  0  0  0  0  0  1 V2000
   19.4688   -4.1899   -0.0633 C   0  0  0  0  0  0  0  0  0  0  0  0
   18.2353   -3.2853   -0.0293 C   0  0  0  0  0  0  0  0  0  0  0  0
   20.9647   -3.1729    0.0000 S   0  0  0  0  0  0  0  0  0  0  0  0
   19.3743   -4.8693    0.8107 H   0  0  0  0  0  0  0  0  0  0  0  0
   19.3900   -4.7796   -1.0016 H   0  0  0  0  0  0  0  0  0  0  0  0
   17.9183   -3.0528   -1.0684 H   0  0  0  0  0  0  0  0  0  0  0  0
   17.4097   -3.8054    0.5021 H   0  0  0  0  0  0  0  0  0  0  0  0
   18.4833   -2.3415    0.5021 H   0  0  0  0  0  0  0  0  0  0  0  0
   21.8814   -3.1921   -1.0816 H   0  0  0  0  0  0  0  0  0  0  0  0
  1  2  1  0  0  0  0
  1  3  1  0  0  0  0
  4  1  1  0  0  0  0
  5  1  1  0  0  0  0
  6  2  1  0  0  0  0
  7  2  1  0  0  0  0
  8  2  1  0  0  0  0
  9  3  1  0  0  0  0
M  END
