23
Frame 1
C 0.1331 -0.7365 0.2232
C -0.0261 0.7941 0.0187
O 1.3312 1.3390 0.4477
C -1.0547 1.4184 0.9262
C -0.1660 1.2365 -1.4221
O 0.7336 -0.8421 1.5174
C 1.1766 -1.2952 -0.7484
C -1.1724 -1.4847 0.1077
H -0.9648 1.0165 1.9647
H -2.0778 1.1921 0.5390
H -0.9239 2.5289 0.9507
H -0.3872 2.3133 -1.4621
H -0.9918 0.6814 -1.8891
H 0.7615 1.0515 -1.9822
H -1.8943 -1.1211 0.8730
H -1.0061 -2.5784 0.2668
H -1.6150 -1.3364 -0.9016
H 2.1388 -0.7685 -0.6523
H 0.8361 -1.1989 -1.7848
H 1.3855 -2.3475 -0.5103
H 0.2333 -1.4192 2.0477
H 1.3569 1.3164 1.4325
H 2.1935 0.2400 0.0372
23
Frame 2
C 0.1346 -0.7369 0.2218
C -0.0264 0.7934 0.0179
O 1.3253 1.3427 0.4609
C -1.0621 1.4158 0.9175
C -0.1531 1.2391 -1.4222
O 0.7438 -0.8394 1.5117
C 1.1669 -1.2993 -0.7581
C -1.1720 -1.4838 0.1202
H -0.9781 1.0158 1.9570
H -2.0815 1.1854 0.5241
H -0.9353 2.5268 0.9407
H -0.3728 2.3162 -1.4619
H -0.9751 0.6857 -1.8967
H 0.7783 1.0535 -1.9746
H -1.8831 -1.1236 0.8949
H -1.0051 -2.5781 0.2725
H -1.6262 -1.3314 -0.8819
H 2.1293 -0.7728 -0.6728
H 0.8150 -1.2056 -1.7899
H 1.3752 -2.3518 -0.5199
H 0.2718 -1.4351 2.0304
H 1.3424 1.3186 1.4457
H 2.1883 0.2648 0.0626
23
Frame 3
C 0.1361 -0.7374 0.2204
C -0.0267 0.7928 0.0172
O 1.3193 1.3464 0.4740
C -1.0694 1.4133 0.9088
C -0.1402 1.2416 -1.4222
O 0.7539 -0.8367 1.5061
C 1.1571 -1.3035 -0.7678
C -1.1716 -1.4830 0.1326
H -0.9914 1.0151 1.9493
H -2.0852 1.1787 0.5092
H -0.9467 2.5247 0.9307
H -0.3584 2.3190 -1.4618
H -0.9584 0.6900 -1.9043
H 0.7951 1.0554 -1.9671
H -1.8719 -1.1261 0.9169
H -1.0042 -2.5779 0.2781
H -1.6374 -1.3263 -0.8623
H 2.1198 -0.7771 -0.6933
H 0.7940 -1.2124 -1.7950
H 1.3649 -2.3561 -0.5295
H 0.3102 -1.4510 2.0131
H 1.3278 1.3208 1.4588
H 2.1831 0.2896 0.0880
23
Frame 4
C 0.1376 -0.7379 0.2190
C -0.0270 0.7921 0.0165
O 1.3134 1.3502 0.4872
C -1.0768 1.4108 0.9001
C -0.1273 1.2442 -1.4223
O 0.7641 -0.8340 1.5004
C 1.1474 -1.3077 -0.7775
C -1.1712 -1.4822 0.1450
H -1.0047 1.0144 1.9415
H -2.0888 1.1719 0.4943
H -0.9581 2.5225 0.9207
H -0.3440 2.3218 -1.4616
H -0.9417 0.6942 -1.9120
H 0.8119 1.0573 -1.9596
H -1.8607 -1.1286 0.9388
H -1.0033 -2.5776 0.2838
H -1.6485 -1.3213 -0.8426
H 2.1103 -0.7813 -0.7139
H 0.7730 -1.2191 -1.8001
H 1.3546 -2.3603 -0.5391
H 0.3487 -1.4668 1.9958
H 1.3133 1.3230 1.4720
H 2.1779 0.3143 0.1134
23
Frame 5
C 0.1392 -0.7383 0.2176
C -0.0272 0.7914 0.0158
O 1.3074 1.3539 0.5004
C -1.0842 1.4083 0.8914
C -0.1143 1.2467 -1.4223
O 0.7743 -0.8313 1.4948
C 1.1377 -1.3119 -0.7872
C -1.1708 -1.4814 0.1574
H -1.0181 1.0138 1.9338
H -2.0925 1.1652 0.4794
H -0.9695 2.5204 0.9107
H -0.3296 2.3247 -1.4615
H -0.9249 0.6985 -1.9196
H 0.8287 1.0593 -1.9520
H -1.8495 -1.1311 0.9607
H -1.0024 -2.5774 0.2895
H -1.6597 -1.3163 -0.8230
H 2.1008 -0.7856 -0.7344
H 0.7519 -1.2258 -1.8052
H 1.3443 -2.3646 -0.5487
H 0.3872 -1.4827 1.9785
H 1.2988 1.3251 1.4852
H 2.1727 0.3391 0.1388
23
Frame 6
C 0.1407 -0.7388 0.2162
C -0.0275 0.7908 0.0151
O 1.3015 1.3576 0.5135
C -1.0915 1.4058 0.8827
C -0.1014 1.2492 -1.4224
O 0.7844 -0.8287 1.4892
C 1.1279 -1.3161 -0.7970
C -1.1704 -1.4806 0.1698
H -1.0314 1.0131 1.9261
H -2.0962 1.1585 0.4645
H -0.9809 2.5183 0.9006
H -0.3152 2.3275 -1.4614
H -0.9082 0.7028 -1.9272
H 0.8455 1.0612 -1.9445
H -1.8384 -1.1336 0.9827
H -1.0015 -2.5772 0.2951
H -1.6709 -1.3112 -0.8033
H 2.0913 -0.7899 -0.7549
H 0.7309 -1.2326 -1.8104
H 1.3340 -2.3689 -0.5584
H 0.4256 -1.4986 1.9612
H 1.2842 1.3273 1.4983
H 2.1675 0.3639 0.1642
23
Frame 7
C 0.1422 -0.7393 0.2148
C -0.0278 0.7901 0.0144
O 1.2955 1.3614 0.5267
C -1.0989 1.4033 0.8740
C -0.0885 1.2518 -1.4224
O 0.7946 -0.8260 1.4835
C 1.1182 -1.3203 -0.8067
C -1.1700 -1.4798 0.1822
H -1.0447 1.0124 1.9183
H -2.0998 1.1517 0.4496
H -0.9923 2.5162 0.8906
H -0.3008 2.3303 -1.4612
H -0.8915 0.7070 -1.9349
H 0.8623 1.0631 -1.9370
H -1.8272 -1.1361 1.0046
H -1.0006 -2.5769 0.3008
H -1.6821 -1.3062 -0.7837
H 2.0818 -0.7942 -0.7755
H 0.7099 -1.2393 -1.8155
H 1.3237 -2.3731 -0.5680
H 0.4641 -1.5145 1.9439
H 1.2697 1.3295 1.5115
H 2.1623 0.3886 0.1896
23
Frame 8
C 0.1468 -0.7406 0.2107
C -0.0286 0.7881 0.0122
O 1.2777 1.3725 0.5662
C -1.1210 1.3957 0.8480
C -0.0497 1.2594 -1.4226
O 0.8251 -0.8179 1.4666
C 1.0890 -1.3328 -0.8358
C -1.1689 -1.4773 0.2195
H -1.0847 1.0104 1.8952
H -2.1109 1.1316 0.4049
H -1.0265 2.5099 0.8606
H -0.2576 2.3389 -1.4608
H -0.8413 0.7199 -1.9577
H 0.9126 1.0690 -1.9143
H -1.7936 -1.1435 1.0704
H -0.9978 -2.5762 0.3178
H -1.7157 -1.2911 -0.7247
H 2.0532 -0.8071 -0.8370
H 0.6467 -1.2595 -1.8308
H 1.2927 -2.3860 -0.5968
H 0.5795 -1.5622 1.8919
H 1.2261 1.3360 1.5510
H 2.1468 0.4630 0.2657
23
Frame 9
C 0.1514 -0.7420 0.2065
C -0.0294 0.7861 0.0101
O 1.2598 1.3837 0.6057
C -1.1431 1.3882 0.8219
C -0.0109 1.2670 -1.4227
O 0.8556 -0.8099 1.4497
C 1.0598 -1.3454 -0.8650
C -1.1677 -1.4749 0.2567
H -1.1247 1.0084 1.8720
H -2.1219 1.1114 0.3602
H -1.0607 2.5036 0.8305
H -0.2144 2.3474 -1.4604
H -0.7911 0.7327 -1.9806
H 0.9630 1.0748 -1.8917
H -1.7601 -1.1510 1.1362
H -0.9951 -2.5755 0.3348
H -1.7493 -1.2760 -0.6658
H 2.0247 -0.8200 -0.8986
H 0.5836 -1.2797 -1.8462
H 1.2618 -2.3988 -0.6257
H 0.6949 -1.6099 1.8400
H 1.1825 1.3425 1.5905
H 2.1312 0.5373 0.3419
23
Frame 10
C 0.1536 -0.7442 0.2049
C -0.0311 0.7832 0.0083
O 1.2536 1.3880 0.6213
C -1.1497 1.3844 0.8140
C 0.0028 1.2687 -1.4235
O 0.8645 -0.8072 1.4454
C 1.0518 -1.3517 -0.8742
C -1.1672 -1.4757 0.2678
H -1.1365 1.0057 1.8649
H -2.1258 1.1045 0.3469
H -1.0704 2.5002 0.8220
H -0.1958 2.3499 -1.4602
H -0.7753 0.7387 -1.9893
H 0.9800 1.0725 -1.8854
H -1.7497 -1.1555 1.1569
H -0.9938 -2.5769 0.3389
H -1.7600 -1.2725 -0.6481
H 2.0181 -0.8276 -0.9163
H 0.5656 -1.2875 -1.8517
H 1.2510 -2.4057 -0.6349
H 0.7319 -1.6282 1.8253
H 1.1726 1.3340 1.6067
H 2.1099 0.6028 0.3604
23
Frame 11
C 0.1558 -0.7463 0.2033
C -0.0327 0.7803 0.0065
O 1.2473 1.3924 0.6369
C -1.1563 1.3807 0.8060
C 0.0166 1.2703 -1.4243
O 0.8734 -0.8046 1.4412
C 1.0439 -1.3581 -0.8834
C -1.1668 -1.4766 0.2789
H -1.1484 1.0031 1.8578
H -2.1297 1.0977 0.3335
H -1.0801 2.4969 0.8134
H -0.1772 2.3524 -1.4600
H -0.7595 0.7448 -1.9981
H 0.9969 1.0703 -1.8791
H -1.7393 -1.1600 1.1776
H -0.9925 -2.5784 0.3430
H -1.7708 -1.2689 -0.6305
H 2.0114 -0.8352 -0.9339
H 0.5477 -1.2953 -1.8573
H 1.2401 -2.4126 -0.6442
H 0.7689 -1.6465 1.8105
H 1.1627 1.3255 1.6229
H 2.0885 0.6682 0.3790
23
Frame 12
C 0.1580 -0.7485 0.2017
C -0.0343 0.7774 0.0047
O 1.2411 1.3967 0.6526
C -1.1629 1.3770 0.7981
C 0.0304 1.2719 -1.4251
O 0.8823 -0.8020 1.4370
C 1.0359 -1.3644 -0.8926
C -1.1663 -1.4774 0.2901
H -1.1603 1.0004 1.8507
H -2.1336 1.0908 0.3202
H -1.0899 2.4936 0.8048
H -0.1587 2.3549 -1.4598
H -0.7437 0.7508 -2.0068
H 1.0138 1.0681 -1.8728
H -1.7288 -1.1645 1.1984
H -0.9912 -2.5798 0.3471
H -1.7815 -1.2654 -0.6128
H 2.0048 -0.8428 -0.9515
H 0.5297 -1.3031 -1.8629
H 1.2292 -2.4195 -0.6535
H 0.8058 -1.6648 1.7958
H 1.1529 1.3170 1.6392
H 2.0672 0.7337 0.3975
23
Frame 13
C 0.1602 -0.7506 0.2001
C -0.0360 0.7745 0.0029
O 1.2348 1.4010 0.6682
C -1.1695 1.3732 0.7902
C 0.0442 1.2736 -1.4259
O 0.8912 -0.7993 1.4327
C 1.0280 -1.3708 -0.9018
C -1.1659 -1.4783 0.3012
H -1.1721 0.9978 1.8437
H -2.1376 1.0840 0.3068
H -1.0996 2.4902 0.7963
H -0.1401 2.3575 -1.4597
H -0.7278 0.7569 -2.0155
H 1.0308 1.0658 -1.8664
H -1.7184 -1.1689 1.2191
H -0.9899 -2.5813 0.3512
H -1.7923 -1.2618 -0.5952
H 1.9981 -0.8505 -0.9692
H 0.5117 -1.3109 -1.8684
H 1.2184 -2.4264 -0.6627
H 0.8428 -1.6832 1.7810
H 1.1430 1.3085 1.6554
H 2.0459 0.7992 0.4160
23
Frame 14
C 0.1624 -0.7528 0.1985
C -0.0376 0.7716 0.0011
O 1.2286 1.4053 0.6838
C -1.1761 1.3695 0.7823
C 0.0580 1.2752 -1.4267
O 0.9001 -0.7967 1.4285
C 1.0200 -1.3771 -0.9110
C -1.1654 -1.4791 0.3123
H -1.1840 0.9951 1.8366
H -2.1415 1.0771 0.2935
H -1.1093 2.4869 0.7877
H -0.1215 2.3600 -1.4595
H -0.7120 0.7629 -2.0242
H 1.0477 1.0636 -1.8601
H -1.7080 -1.1734 1.2398
H -0.9886 -2.5827 0.3553
H -1.8030 -1.2583 -0.5775
H 1.9915 -0.8581 -0.9868
H 0.4937 -1.3187 -1.8740
H 1.2075 -2.4333 -0.6720
H 0.8798 -1.7015 1.7663
H 1.1331 1.3000 1.6716
H 2.0246 0.8647 0.4345
