23
Frame 1
C -0.7609 0.1959 -0.1155
C 0.7724 0.0222 0.0300
O 1.2954 1.4923 0.2209
C 1.4796 -0.4256 -1.2184
C 1.2418 -0.6708 1.2819
O -0.8532 1.4914 -0.7257
C -1.4728 0.2302 1.2259
C -1.3580 -0.8843 -1.0079
H 1.1219 0.1438 -2.1128
H 1.2687 -1.5142 -1.3823
H 2.5868 -0.2944 -1.1161
H 2.3571 -0.7628 1.2854
H 0.7949 -1.6980 1.3081
H 0.9266 -0.1201 2.2025
H -0.9934 -0.7762 -2.0580
H -2.4727 -0.7951 -1.0099
H -1.0842 -1.8956 -0.6228
H -1.0416 1.0186 1.8889
H -1.3963 -0.7609 1.7346
H -2.5556 0.4637 1.0697
H -1.7491 1.6061 -1.0683
H 1.2119 1.9677 -0.6521
H 0.6808 1.9661 0.8419
23
Frame 2
C -0.7640 0.1884 -0.1165
C 0.7654 -0.0051 0.0274
O 1.2996 1.5122 0.2293
C 1.4832 -0.4225 -1.2230
C 1.2453 -0.6776 1.2844
O -0.8464 1.4826 -0.7303
C -1.4748 0.2293 1.2257
C -1.3679 -0.8900 -1.0070
H 1.1219 0.1555 -2.1105
H 1.2867 -1.5116 -1.4043
H 2.5884 -0.2791 -1.1134
H 2.3613 -0.7598 1.2854
H 0.8065 -1.7082 1.3258
H 0.9274 -0.1184 2.1993
H -0.9957 -0.7910 -2.0556
H -2.4814 -0.7887 -1.0158
H -1.1075 -1.9025 -0.6156
H -1.0372 1.0151 1.8873
H -1.4045 -0.7622 1.7342
H -2.5561 0.4703 1.0702
H -1.7434 1.6045 -1.0676
H 1.2222 1.9785 -0.6449
H 0.6712 1.9802 0.8356
23
Frame 3
C -0.7668 0.1803 -0.1174
C 0.7586 -0.0325 0.0247
O 1.3034 1.5320 0.2392
C 1.4863 -0.4188 -1.2275
C 1.2488 -0.6848 1.2862
O -0.8388 1.4727 -0.7355
C -1.4768 0.2290 1.2255
C -1.3777 -0.8965 -1.0055
H 1.1209 0.1695 -2.1067
H 1.3031 -1.5073 -1.4286
H 2.5893 -0.2645 -1.1110
H 2.3656 -0.7571 1.2848
H 0.8192 -1.7191 1.3417
H 0.9279 -0.1176 2.1954
H -0.9969 -0.8083 -2.0519
H -2.4899 -0.7812 -1.0225
H -1.1328 -1.9099 -0.6066
H -1.0347 1.0140 1.8848
H -1.4115 -0.7616 1.7362
H -2.5567 0.4754 1.0694
H -1.7363 1.6008 -1.0694
H 1.2334 1.9907 -0.6356
H 0.6621 1.9948 0.8305
23
Frame 4
C -0.7691 0.1717 -0.1189
C 0.7520 -0.0601 0.0214
O 1.3062 1.5516 0.2515
C 1.4901 -0.4123 -1.2324
C 1.2512 -0.6947 1.2861
O -0.8308 1.4612 -0.7433
C -1.4777 0.2306 1.2248
C -1.3881 -0.9048 -1.0025
H 1.1186 0.1848 -2.1033
H 1.3244 -1.5005 -1.4523
H 2.5903 -0.2435 -1.1087
H 2.3684 -0.7607 1.2814
H 0.8269 -1.7307 1.3559
H 0.9300 -0.1189 2.1901
H -0.9983 -0.8305 -2.0467
H -2.4984 -0.7743 -1.0284
H -1.1605 -1.9181 -0.5934
H -1.0310 1.0163 1.8800
H -1.4166 -0.7579 1.7402
H -2.5564 0.4817 1.0683
H -1.7283 1.5950 -1.0751
H 1.2446 2.0050 -0.6230
H 0.6527 2.0091 0.8284
23
Frame 5
C -0.7713 0.1623 -0.1207
C 0.7454 -0.0874 0.0174
O 1.3074 1.5714 0.2662
C 1.4942 -0.4042 -1.2371
C 1.2530 -0.7060 1.2846
O -0.8227 1.4487 -0.7517
C -1.4777 0.2322 1.2240
C -1.3988 -0.9139 -0.9992
H 1.1152 0.2002 -2.0998
H 1.3489 -1.4919 -1.4756
H 2.5910 -0.2185 -1.1058
H 2.3702 -0.7720 1.2743
H 0.8284 -1.7413 1.3706
H 0.9365 -0.1187 2.1833
H -0.9973 -0.8570 -2.0400
H -2.5065 -0.7652 -1.0377
H -1.1928 -1.9264 -0.5768
H -1.0279 1.0220 1.8723
H -1.4175 -0.7524 1.7467
H -2.5561 0.4843 1.0672
H -1.7206 1.5884 -1.0803
H 1.2583 2.0204 -0.6081
H 0.6408 2.0251 0.8262
23
Frame 6
C -0.7732 0.1527 -0.1227
C 0.7392 -0.1141 0.0130
O 1.3081 1.5920 0.2806
C 1.4983 -0.3954 -1.2414
C 1.2543 -0.7178 1.2822
O -0.8148 1.4356 -0.7608
C -1.4772 0.2340 1.2230
C -1.4093 -0.9238 -0.9952
H 1.1111 0.2152 -2.0963
H 1.3755 -1.4823 -1.4977
H 2.5912 -0.1913 -1.1020
H 2.3713 -0.7860 1.2662
H 0.8276 -1.7513 1.3849
H 0.9434 -0.1186 2.1755
H -0.9968 -0.8851 -2.0326
H -2.5141 -0.7571 -1.0460
H -1.2247 -1.9347 -0.5591
H -1.0220 1.0249 1.8661
H -1.4216 -0.7480 1.7512
H -2.5543 0.4912 1.0661
H -1.7128 1.5803 -1.0872
H 1.2706 2.0374 -0.5929
H 0.6302 2.0421 0.8253
23
Frame 7
C -0.7747 0.1428 -0.1248
C 0.7333 -0.1402 0.0082
O 1.3073 1.6133 0.2968
C 1.5030 -0.3843 -1.2452
C 1.2542 -0.7319 1.2785
O -0.8071 1.4218 -0.7705
C -1.4755 0.2355 1.2222
C -1.4197 -0.9340 -0.9910
H 1.1034 0.2276 -2.0937
H 1.4101 -1.4712 -1.5160
H 2.5901 -0.1548 -1.0982
H 2.3702 -0.8142 1.2545
H 0.8146 -1.7584 1.4015
H 0.9576 -0.1155 2.1656
H -0.9950 -0.9152 -2.0240
H -2.5207 -0.7481 -1.0563
H -1.2588 -1.9428 -0.5410
H -1.0171 1.0308 1.8577
H -1.4202 -0.7424 1.7580
H -2.5525 0.4931 1.0656
H -1.7059 1.5723 -1.0921
H 1.2873 2.0536 -0.5768
H 0.6161 2.0623 0.8210
23
Frame 8
C -0.7761 0.1326 -0.1271
C 0.7275 -0.1657 0.0031
O 1.3059 1.6351 0.3127
C 1.5072 -0.3741 -1.2482
C 1.2539 -0.7460 1.2742
O -0.7999 1.4082 -0.7794
C -1.4735 0.2365 1.2213
C -1.4299 -0.9441 -0.9874
H 1.0975 0.2393 -2.0909
H 1.4421 -1.4599 -1.5336
H 2.5885 -0.1220 -1.0923
H 2.3685 -0.8421 1.2424
H 0.8021 -1.7652 1.4173
H 0.9712 -0.1128 2.1548
H -0.9945 -0.9439 -2.0162
H -2.5268 -0.7404 -1.0660
H -1.2908 -1.9502 -0.5243
H -1.0127 1.0374 1.8481
H -1.4171 -0.7366 1.7658
H -2.5509 0.4930 1.0652
H -1.6994 1.5644 -1.0963
H 1.3040 2.0718 -0.5603
H 0.6033 2.0845 0.8171
23
Frame 9
C -0.7768 0.1205 -0.1303
C 0.7231 -0.1891 -0.0028
O 1.2991 1.6613 0.3271
C 1.5140 -0.3592 -1.2505
C 1.2525 -0.7592 1.2696
O -0.7959 1.3927 -0.7885
C -1.4706 0.2326 1.2198
C -1.4362 -0.9577 -0.9850
H 1.0985 0.2610 -2.0856
H 1.4730 -1.4415 -1.5555
H 2.5896 -0.0898 -1.0812
H 2.3581 -0.9224 1.2137
H 0.7437 -1.7417 1.4675
H 1.0315 -0.0773 2.1329
H -0.9947 -0.9705 -2.0109
H -2.5303 -0.7431 -1.0721
H -1.3112 -1.9608 -0.5119
H -0.9969 1.0255 1.8472
H -1.4275 -0.7418 1.7629
H -2.5443 0.5051 1.0651
H -1.6953 1.5499 -1.1055
H 1.3091 2.0976 -0.5439
H 0.5876 2.1079 0.8180
23
Frame 10
C -0.7776 0.1077 -0.1342
C 0.7186 -0.2122 -0.0089
O 1.2880 1.6879 0.3466
C 1.5212 -0.3427 -1.2515
C 1.2503 -0.7748 1.2637
O -0.7921 1.3754 -0.8004
C -1.4673 0.2307 1.2174
C -1.4431 -0.9735 -0.9810
H 1.1007 0.2856 -2.0783
H 1.5044 -1.4202 -1.5772
H 2.5906 -0.0571 -1.0673
H 2.3425 -1.0060 1.1860
H 0.6874 -1.7148 1.5155
H 1.0954 -0.0479 2.1064
H -1.0038 -0.9931 -2.0079
H -2.5368 -0.7549 -1.0660
H -1.3213 -1.9749 -0.5031
H -0.9750 1.0106 1.8465
H -1.4454 -0.7456 1.7581
H -2.5348 0.5272 1.0643
H -1.6913 1.5328 -1.1182
H 1.3258 2.1224 -0.5223
H 0.5635 2.1375 0.8118
23
Frame 11
C -0.7785 0.1011 -0.1358
C 0.7177 -0.2162 -0.0091
O 1.2745 1.6988 0.3553
C 1.5248 -0.3317 -1.2494
C 1.2524 -0.7777 1.2622
O -0.7951 1.3671 -0.8051
C -1.4695 0.2258 1.2151
C -1.4407 -0.9833 -0.9811
H 1.1049 0.3023 -2.0721
H 1.5133 -1.4061 -1.5851
H 2.5925 -0.0442 -1.0582
H 2.3128 -1.0865 1.1610
H 0.6446 -1.6545 1.5721
H 1.1865 -0.0215 2.0747
H -1.0039 -0.9998 -2.0092
H -2.5356 -0.7700 -1.0627
H -1.3126 -1.9844 -0.5044
H -0.9523 0.9718 1.8602
H -1.4890 -0.7576 1.7371
H -2.5215 0.5651 1.0642
H -1.6937 1.5202 -1.1267
H 1.3259 2.1340 -0.5116
H 0.5424 2.1474 0.8083
23
Frame 12
C -0.7793 0.0946 -0.1373
C 0.7168 -0.2202 -0.0093
O 1.2609 1.7096 0.3641
C 1.5285 -0.3206 -1.2472
C 1.2545 -0.7806 1.2607
O -0.7982 1.3587 -0.8098
C -1.4717 0.2209 1.2128
C -1.4383 -0.9931 -0.9812
H 1.1091 0.3190 -2.0658
H 1.5222 -1.3921 -1.5930
H 2.5943 -0.0312 -1.0491
H 2.2832 -1.1669 1.1360
H 0.6019 -1.5943 1.6288
H 1.2776 0.0049 2.0429
H -1.0041 -1.0064 -2.0105
H -2.5345 -0.7850 -1.0594
H -1.3038 -1.9940 -0.5058
H -0.9296 0.9330 1.8740
H -1.5326 -0.7695 1.7162
H -2.5082 0.6030 1.0642
H -1.6961 1.5076 -1.1352
H 1.3261 2.1456 -0.5009
H 0.5213 2.1572 0.8049
23
Frame 13
C -0.7802 0.0881 -0.1389
C 0.7159 -0.2242 -0.0095
O 1.2473 1.7204 0.3728
C 1.5321 -0.3096 -1.2450
C 1.2566 -0.7834 1.2592
O -0.8012 1.3504 -0.8145
C -1.4739 0.2159 1.2106
C -1.4358 -1.0029 -0.9814
H 1.1132 0.3357 -2.0596
H 1.5310 -1.3780 -1.6009
H 2.5962 -0.0183 -1.0401
H 2.2536 -1.2474 1.1110
H 0.5591 -1.5340 1.6855
H 1.3688 0.0312 2.0112
H -1.0042 -1.0131 -2.0118
H -2.5333 -0.8001 -1.0560
H -1.2951 -2.0035 -0.5071
H -0.9069 0.8941 1.8877
H -1.5763 -0.7815 1.6952
H -2.4949 0.6409 1.0642
H -1.6984 1.4950 -1.1437
H 1.3262 2.1571 -0.4903
H 0.5003 2.1671 0.8014
23
Frame 14
C -0.7811 0.0815 -0.1405
C 0.7150 -0.2282 -0.0097
O 1.2338 1.7313 0.3816
C 1.5358 -0.2986 -1.2429
C 1.2587 -0.7863 1.2577
O -0.8042 1.3421 -0.8192
C -1.4761 0.2110 1.2083
C -1.4334 -1.0127 -0.9815
H 1.1174 0.3524 -2.0534
H 1.5399 -1.3640 -1.6088
H 2.5980 -0.0053 -1.0310
H 2.2239 -1.3278 1.0860
H 0.5163 -1.4738 1.7421
H 1.4599 0.0576 1.9794
H -1.0044 -1.0198 -2.0131
H -2.5321 -0.8152 -1.0527
H -1.2863 -2.0130 -0.5085
H -0.8842 0.8553 1.9015
H -1.6199 -0.7934 1.6743
H -2.4816 0.6788 1.0641
H -1.7008 1.4824 -1.1522
H 1.3263 2.1687 -0.4796
H 0.4792 2.1769 0.7980
23
Frame 15
C -0.7824 0.0675 -0.1445
C 0.7104 -0.2501 -0.0139
O 1.2158 1.7593 0.4039
C 1.5405 -0.2831 -1.2400
C 1.2600 -0.8007 1.2521
O -0.8018 1.3232 -0.8316
C -1.4769 0.2087 1.2038
C -1.4383 -1.0306 -0.9782
H 1.1283 0.3924 -2.0338
H 1.5469 -1.3370 -1.6393
H 2.6015 0.0024 -1.0112
H 2.1822 -1.4093 1.0679
H 0.4977 -1.4141 1.7984
H 1.5486 0.0604 1.9251
H -1.0080 -1.0472 -2.0090
H -2.5359 -0.8282 -1.0520
H -1.2972 -2.0283 -0.4980
H -0.8701 0.8354 1.9004
H -1.6474 -0.7935 1.6657
H -2.4698 0.7024 1.0589
H -1.6978 1.4619 -1.1672
H 1.3435 2.1994 -0.4494
H 0.4503 2.2091 0.7921
23
Frame 16
C -0.7827 0.0564 -0.1482
C 0.7063 -0.2719 -0.0197
O 1.2059 1.7859 0.4208
C 1.5441 -0.2750 -1.2384
C 1.2583 -0.8152 1.2463
O -0.7965 1.3084 -0.8417
C -1.4737 0.2078 1.2011
C -1.4462 -1.0428 -0.9751
H 1.1346 0.4152 -2.0215
H 1.5587 -1.3203 -1.6609
H 2.6024 0.0101 -0.9959
H 2.1670 -1.4441 1.0627
H 0.4927 -1.4004 1.8178
H 1.5739 0.0568 1.8954
H -1.0153 -1.0697 -2.0053
H -2.5421 -0.8317 -1.0513
H -1.3143 -2.0380 -0.4874
H -0.8615 0.8353 1.8924
H -1.6489 -0.7911 1.6680
H -2.4642 0.7061 1.0556
H -1.6929 1.4499 -1.1751
H 1.3604 2.2268 -0.4264
H 0.4343 2.2414 0.7868
23
Frame 17
C -0.7828 0.0459 -0.1517
C 0.7023 -0.2929 -0.0252
O 1.1972 1.8134 0.4353
C 1.5473 -0.2687 -1.2364
C 1.2557 -0.8302 1.2405
O -0.7918 1.2944 -0.8509
C -1.4703 0.2072 1.1987
C -1.4535 -1.0540 -0.9724
H 1.1404 0.4351 -2.0094
H 1.5697 -1.3055 -1.6802
H 2.6029 0.0156 -0.9807
H 2.1544 -1.4746 1.0593
H 0.4881 -1.3929 1.8322
H 1.5910 0.0519 1.8691
H -1.0246 -1.0873 -2.0034
H -2.5484 -0.8370 -1.0475
H -1.3265 -2.0479 -0.4806
H -0.8549 0.8397 1.8828
H -1.6459 -0.7881 1.6730
H -2.4604 0.7061 1.0518
H -1.6891 1.4392 -1.1807
H 1.3776 2.2548 -0.4052
H 0.4218 2.2758 0.7815
23
Frame 18
C -0.7826 0.0361 -0.1551
C 0.6987 -0.3129 -0.0310
O 1.1917 1.8417 0.4473
C 1.5497 -0.2656 -1.2348
C 1.2521 -0.8441 1.2352
O -0.7869 1.2819 -0.8584
C -1.4661 0.2060 1.1967
C -1.4615 -1.0636 -0.9700
H 1.1463 0.4512 -1.9978
H 1.5767 -1.2942 -1.6977
H 2.6035 0.0156 -0.9682
H 2.1523 -1.4870 1.0596
H 0.4876 -1.4015 1.8345
H 1.5856 0.0471 1.8529
H -1.0351 -1.1035 -2.0017
H -2.5551 -0.8398 -1.0437
H -1.3400 -2.0563 -0.4745
H -0.8503 0.8479 1.8721
H -1.6355 -0.7857 1.6806
H -2.4588 0.6993 1.0484
H -1.6851 1.4301 -1.1845
H 1.3982 2.2845 -0.3857
H 0.4146 2.3130 0.7757
23
Frame 19
C -0.7866 0.0294 -0.1626
C 0.6960 -0.3126 -0.0394
O 1.1822 1.8430 0.4729
C 1.5491 -0.2469 -1.2397
C 1.2461 -0.8520 1.2242
O -0.8013 1.2596 -0.8895
C -1.4628 0.2214 1.1891
C -1.4647 -1.0874 -0.9517
H 1.1740 0.5117 -1.9635
H 1.5324 -1.2422 -1.7471
H 2.6085 -0.0200 -0.9745
H 2.1584 -1.4762 1.0517
H 0.4857 -1.4302 1.8061
H 1.5542 0.0350 1.8577
H -1.0477 -1.1424 -1.9857
H -2.5600 -0.8713 -1.0187
H -1.3321 -2.0698 -0.4410
H -0.8490 0.8822 1.8453
H -1.6187 -0.7600 1.6941
H -2.4609 0.7017 1.0384
H -1.7049 1.4070 -1.1980
H 1.4878 2.2887 -0.2671
H 0.4144 2.3318 0.6991
23
Frame 20
C -0.7907 0.0227 -0.1700
C 0.6933 -0.3124 -0.0478
O 1.1728 1.8443 0.4985
C 1.5485 -0.2283 -1.2446
C 1.2401 -0.8599 1.2133
O -0.8158 1.2372 -0.9207
C -1.4594 0.2368 1.1815
C -1.4678 -1.1112 -0.9333
H 1.2016 0.5722 -1.9292
H 1.4881 -1.1903 -1.7965
H 2.6136 -0.0555 -0.9808
H 2.1645 -1.4655 1.0437
H 0.4839 -1.4590 1.7777
H 1.5228 0.0230 1.8624
H -1.0602 -1.1813 -1.9697
H -2.5650 -0.9028 -0.9938
H -1.3243 -2.0834 -0.4076
H -0.8478 0.9164 1.8185
H -1.6020 -0.7344 1.7076
H -2.4631 0.7040 1.0284
H -1.7248 1.3838 -1.2116
H 1.5774 2.2929 -0.1485
H 0.4143 2.3506 0.6225
23
Frame 21
C -0.7947 0.0161 -0.1775
C 0.6906 -0.3121 -0.0563
O 1.1633 1.8456 0.5241
C 1.5479 -0.2096 -1.2495
C 1.2341 -0.8678 1.2023
O -0.8302 1.2149 -0.9518
C -1.4561 0.2521 1.1739
C -1.4710 -1.1350 -0.9150
H 1.2293 0.6327 -1.8949
H 1.4438 -1.1384 -1.8460
H 2.6186 -0.0911 -0.9871
H 2.1706 -1.4547 1.0358
H 0.4820 -1.4877 1.7493
H 1.4914 0.0109 1.8672
H -1.0728 -1.2201 -1.9537
H -2.5699 -0.9343 -0.9688
H -1.3164 -2.0969 -0.3741
H -0.8465 0.9507 1.7917
H -1.5852 -0.7087 1.7210
H -2.4652 0.7064 1.0185
H -1.7446 1.3607 -1.2251
H 1.6670 2.2971 -0.0300
H 0.4141 2.3693 0.5459
23
Frame 22
C -0.7987 0.0094 -0.1849
C 0.6878 -0.3118 -0.0647
O 1.1538 1.8468 0.5497
C 1.5473 -0.1909 -1.2544
C 1.2282 -0.8757 1.1913
O -0.8446 1.1926 -0.9829
C -1.4528 0.2675 1.1662
C -1.4742 -1.1588 -0.8966
H 1.2570 0.6931 -1.8605
H 1.3994 -1.0864 -1.8954
H 2.6236 -0.1267 -0.9934
H 2.1766 -1.4439 1.0279
H 0.4802 -1.5164 1.7208
H 1.4599 -0.0012 1.8719
H -1.0854 -1.2590 -1.9377
H -2.5748 -0.9658 -0.9438
H -1.3086 -2.1104 -0.3407
H -0.8452 0.9850 1.7650
H -1.5684 -0.6831 1.7345
H -2.4673 0.7088 1.0085
H -1.7644 1.3376 -1.2386
H 1.7565 2.3013 0.0886
H 0.4139 2.3881 0.4692
23
Frame 23
C -0.8028 0.0027 -0.1924
C 0.6851 -0.3116 -0.0731
O 1.1444 1.8481 0.5753
C 1.5467 -0.1723 -1.2593
C 1.2222 -0.8836 1.1804
O -0.8591 1.1702 -1.0141
C -1.4494 0.2829 1.1586
C -1.4773 -1.1826 -0.8783
H 1.2846 0.7536 -1.8262
H 1.3551 -1.0345 -1.9448
H 2.6287 -0.1622 -0.9997
H 2.1827 -1.4332 1.0199
H 0.4783 -1.5452 1.6924
H 1.4285 -0.0132 1.8767
H -1.0979 -1.2979 -1.9217
H -2.5798 -0.9973 -0.9189
H -1.3007 -2.1240 -0.3072
H -0.8440 1.0192 1.7382
H -1.5517 -0.6574 1.7480
H -2.4695 0.7111 0.9985
H -1.7843 1.3144 -1.2522
H 1.8461 2.3055 0.2072
H 0.4138 2.4069 0.3926
23
Frame 24
C -0.8068 -0.0040 -0.1998
C 0.6824 -0.3113 -0.0815
O 1.1349 1.8494 0.6009
C 1.5461 -0.1536 -1.2642
C 1.2162 -0.8915 1.1694
O -0.8735 1.1479 -1.0452
C -1.4461 0.2983 1.1510
C -1.4805 -1.2064 -0.8599
H 1.3123 0.8141 -1.7919
H 1.3108 -0.9825 -1.9942
H 2.6337 -0.1978 -1.0060
H 2.1888 -1.4224 1.0120
H 0.4765 -1.5739 1.6640
H 1.3971 -0.0253 1.8814
H -1.1105 -1.3368 -1.9057
H -2.5847 -1.0288 -0.8939
H -1.2929 -2.1375 -0.2738
H -0.8427 1.0535 1.7114
H -1.5349 -0.6318 1.7615
H -2.4716 0.7135 0.9885
H -1.8041 1.2913 -1.2657
H 1.9357 2.3097 0.3258
H 0.4136 2.4257 0.3160
23
Frame 25
C -0.8060 -0.0103 -0.2046
C 0.6827 -0.3178 -0.0869
O 1.1305 1.8564 0.5976
C 1.5450 -0.1545 -1.2692
C 1.2170 -0.8950 1.1647
O -0.8739 1.1322 -1.0621
C -1.4421 0.3058 1.1444
C -1.4823 -1.2187 -0.8505
H 1.3487 0.8396 -1.7521
H 1.2694 -0.9326 -2.0294
H 2.6283 -0.2515 -1.0274
H 2.1929 -1.4205 1.0102
H 0.4800 -1.5814 1.6578
H 1.3903 -0.0271 1.8763
H -1.1171 -1.3587 -1.8966
H -2.5866 -1.0414 -0.8813
H -1.2919 -2.1443 -0.2569
H -0.8420 1.0727 1.6914
H -1.5215 -0.6161 1.7676
H -2.4711 0.7113 0.9807
H -1.8056 1.2788 -1.2756
H 1.9281 2.3372 0.4188
H 0.4269 2.4358 0.2833
23
Frame 26
C -0.8053 -0.0166 -0.2094
C 0.6831 -0.3243 -0.0922
O 1.1260 1.8633 0.5943
C 1.5439 -0.1553 -1.2743
C 1.2179 -0.8984 1.1600
O -0.8743 1.1164 -1.0790
C -1.4382 0.3133 1.1379
C -1.4841 -1.2311 -0.8412
H 1.3851 0.8650 -1.7122
H 1.2281 -0.8827 -2.0646
H 2.6229 -0.3052 -1.0489
H 2.1970 -1.4186 1.0084
H 0.4835 -1.5889 1.6516
H 1.3836 -0.0289 1.8713
H -1.1236 -1.3806 -1.8876
H -2.5884 -1.0540 -0.8687
H -1.2909 -2.1511 -0.2401
H -0.8413 1.0920 1.6714
H -1.5080 -0.6003 1.7737
H -2.4707 0.7090 0.9729
H -1.8070 1.2662 -1.2854
H 1.9205 2.3646 0.5118
H 0.4402 2.4460 0.2506
23
Frame 27
C -0.8045 -0.0228 -0.2142
C 0.6834 -0.3309 -0.0976
O 1.1216 1.8703 0.5909
C 1.5427 -0.1562 -1.2793
C 1.2187 -0.9019 1.1552
O -0.8748 1.1007 -1.0959
C -1.4342 0.3209 1.1313
C -1.4858 -1.2434 -0.8318
H 1.4216 0.8905 -1.6724
H 1.1867 -0.8328 -2.0998
H 2.6175 -0.3588 -1.0703
H 2.2011 -1.4166 1.0065
H 0.4870 -1.5964 1.6453
H 1.3769 -0.0307 1.8663
H -1.1302 -1.4026 -1.8785
H -2.5903 -1.0665 -0.8560
H -1.2898 -2.1580 -0.2233
H -0.8406 1.1112 1.6514
H -1.4946 -0.5846 1.7798
H -2.4702 0.7067 0.9652
H -1.8085 1.2537 -1.2953
H 1.9128 2.3921 0.6047
H 0.4535 2.4561 0.2179
23
Frame 28
C -0.8037 -0.0291 -0.2190
C 0.6838 -0.3374 -0.1030
O 1.1171 1.8772 0.5876
C 1.5416 -0.1571 -1.2843
C 1.2196 -0.9053 1.1505
O -0.8752 1.0850 -1.1128
C -1.4303 0.3284 1.1247
C -1.4876 -1.2557 -0.8224
H 1.4580 0.9159 -1.6326
H 1.1454 -0.7829 -2.1350
H 2.6121 -0.4125 -1.0917
H 2.2052 -1.4147 1.0047
H 0.4905 -1.6039 1.6391
H 1.3701 -0.0325 1.8612
H -1.1368 -1.4245 -1.8695
H -2.5922 -1.0791 -0.8434
H -1.2888 -2.1648 -0.2064
H -0.8399 1.1304 1.6314
H -1.4812 -0.5689 1.7859
H -2.4698 0.7045 0.9574
H -1.8100 1.2412 -1.3052
H 1.9052 2.4196 0.6977
H 0.4668 2.4662 0.1852
23
Frame 29
C -0.8018 -0.0337 -0.2213
C 0.6851 -0.3436 -0.1076
O 1.1208 1.8891 0.5641
C 1.5415 -0.1614 -1.2890
C 1.2230 -0.9088 1.1456
O -0.8747 1.0735 -1.1232
C -1.4238 0.3353 1.1213
C -1.4889 -1.2643 -0.8127
H 1.5243 0.9230 -1.5760
H 1.1092 -0.7055 -2.1620
H 2.5908 -0.4830 -1.1252
H 2.2081 -1.4193 0.9990
H 0.4949 -1.6066 1.6368
H 1.3756 -0.0350 1.8539
H -1.1391 -1.4437 -1.8582
H -2.5931 -1.0855 -0.8346
H -1.2915 -2.1679 -0.1884
H -0.8322 1.1430 1.6171
H -1.4704 -0.5556 1.7911
H -2.4644 0.7084 0.9547
H -1.8093 1.2237 -1.3206
H 1.8404 2.4442 0.7861
H 0.4754 2.4740 0.1490
23
Frame 30
C -0.8000 -0.0384 -0.2236
C 0.6863 -0.3498 -0.1123
O 1.1246 1.9009 0.5405
C 1.5414 -0.1656 -1.2937
C 1.2265 -0.9124 1.1407
O -0.8741 1.0619 -1.1336
C -1.4172 0.3422 1.1180
C -1.4901 -1.2730 -0.8030
H 1.5906 0.9300 -1.5195
H 1.0729 -0.6281 -2.1889
H 2.5694 -0.5534 -1.1587
H 2.2110 -1.4239 0.9934
H 0.4992 -1.6093 1.6345
H 1.3812 -0.0376 1.8467
H -1.1413 -1.4629 -1.8469
H -2.5940 -1.0918 -0.8259
H -1.2943 -2.1710 -0.1704
H -0.8245 1.1556 1.6029
H -1.4595 -0.5423 1.7964
H -2.4591 0.7122 0.9521
H -1.8087 1.2062 -1.3360
H 1.7756 2.4688 0.8745
H 0.4841 2.4818 0.1127
23
Frame 31
C -0.7981 -0.0430 -0.2260
C 0.6876 -0.3560 -0.1169
O 1.1283 1.9128 0.5170
C 1.5413 -0.1699 -1.2984
C 1.2300 -0.9159 1.1357
O -0.8736 1.0504 -1.1440
C -1.4107 0.3491 1.1146
C -1.4914 -1.2816 -0.7932
H 1.6569 0.9371 -1.4629
H 1.0367 -0.5507 -2.2158
H 2.5481 -0.6239 -1.1922
H 2.2139 -1.4285 0.9877
H 0.5035 -1.6121 1.6322
H 1.3867 -0.0401 1.8394
H -1.1435 -1.4822 -1.8355
H -2.5948 -1.0982 -0.8171
H -1.2970 -2.1742 -0.1524
H -0.8168 1.1681 1.5886
H -1.4487 -0.5290 1.8016
H -2.4537 0.7160 0.9494
H -1.8080 1.1888 -1.3513
H 1.7108 2.4934 0.9630
H 0.4927 2.4895 0.0765
23
Frame 32
C -0.8088 -0.0590 -0.2433
C 0.6778 -0.3564 -0.1305
O 1.1681 1.9277 0.5593
C 1.5348 -0.1395 -1.2992
C 1.2197 -0.9217 1.1179
O -0.8978 1.0033 -1.1894
C -1.4167 0.3670 1.0866
C -1.4964 -1.3143 -0.7697
H 1.6387 0.9722 -1.4375
H 1.0385 -0.5027 -2.2287
H 2.5465 -0.5851 -1.1957
H 2.2022 -1.4365 0.9666
H 0.4934 -1.6169 1.6157
H 1.3823 -0.0477 1.8230
H -1.1468 -1.5450 -1.8023
H -2.6004 -1.1365 -0.7995
H -1.2989 -2.1829 -0.1033
H -0.8293 1.2034 1.5286
H -1.4393 -0.4871 1.7980
H -2.4644 0.7170 0.9201
H -1.8346 1.1357 -1.3885
H 1.7814 2.4673 1.0061
H 0.5502 2.5376 0.1657
23
Frame 33
C -0.8194 -0.0749 -0.2605
C 0.6681 -0.3567 -0.1440
O 1.2078 1.9426 0.6015
C 1.5284 -0.1091 -1.3000
C 1.2094 -0.9275 1.1001
O -0.9220 0.9563 -1.2348
C -1.4227 0.3849 1.0586
C -1.5013 -1.3469 -0.7463
H 1.6205 1.0072 -1.4122
H 1.0402 -0.4548 -2.2416
H 2.5450 -0.5464 -1.1991
H 2.1904 -1.4445 0.9456
H 0.4832 -1.6217 1.5991
H 1.3779 -0.0554 1.8066
H -1.1501 -1.6077 -1.7690
H -2.6059 -1.1748 -0.7818
H -1.3008 -2.1916 -0.0543
H -0.8419 1.2388 1.4686
H -1.4300 -0.4452 1.7944
H -2.4751 0.7180 0.8908
H -1.8612 1.0825 -1.4258
H 1.8521 2.4412 1.0491
H 0.6076 2.5857 0.2550
23
Frame 34
C -0.8301 -0.0909 -0.2778
C 0.6583 -0.3571 -0.1576
O 1.2476 1.9575 0.6438
C 1.5219 -0.0787 -1.3008
C 1.1991 -0.9333 1.0823
O -0.9462 0.9092 -1.2802
C -1.4287 0.4028 1.0306
C -1.5063 -1.3796 -0.7228
H 1.6023 1.0423 -1.3868
H 1.0420 -0.4068 -2.2545
H 2.5434 -0.5076 -1.2026
H 2.1787 -1.4525 0.9245
H 0.4731 -1.6265 1.5826
H 1.3735 -0.0630 1.7902
H -1.1534 -1.6705 -1.7358
H -2.6115 -1.2131 -0.7642
H -1.3027 -2.2003 -0.0052
H -0.8544 1.2741 1.4086
H -1.4206 -0.4033 1.7908
H -2.4858 0.7190 0.8615
H -1.8878 1.0294 -1.4630
H 1.9227 2.4151 1.0922
H 0.6651 2.6338 0.3442
23
Frame 35
C -0.8408 -0.1068 -0.2951
C 0.6486 -0.3575 -0.1712
O 1.2874 1.9725 0.6860
C 1.5155 -0.0484 -1.3017
C 1.1888 -0.9391 1.0645
O -0.9705 0.8621 -1.3256
C -1.4347 0.4208 1.0027
C -1.5113 -1.4122 -0.6993
H 1.5841 1.0773 -1.3615
H 1.0437 -0.3588 -2.2674
H 2.5418 -0.4689 -1.2060
H 2.1669 -1.4604 0.9035
H 0.4629 -1.6313 1.5661
H 1.3691 -0.0707 1.7739
H -1.1567 -1.7333 -1.7026
H -2.6170 -1.2514 -0.7466
H -1.3046 -2.2091 0.0438
H -0.8669 1.3095 1.3487
H -1.4113 -0.3614 1.7872
H -2.4965 0.7200 0.8322
H -1.9144 0.9762 -1.5003
H 1.9934 2.3890 1.1352
H 0.7225 2.6819 0.4335
23
Frame 36
C -0.8515 -0.1228 -0.3124
C 0.6388 -0.3579 -0.1848
O 1.3272 1.9874 0.7283
C 1.5090 -0.0180 -1.3025
C 1.1785 -0.9449 1.0467
O -0.9947 0.8150 -1.3710
C -1.4407 0.4387 0.9747
C -1.5163 -1.4449 -0.6758
H 1.5659 1.1124 -1.3361
H 1.0455 -0.3108 -2.2803
H 2.5402 -0.4301 -1.2095
H 2.1552 -1.4684 0.8824
H 0.4528 -1.6361 1.5496
H 1.3647 -0.0783 1.7575
H -1.1600 -1.7961 -1.6694
H -2.6226 -1.2897 -0.7290
H -1.3065 -2.2178 0.0929
H -0.8794 1.3448 1.2887
H -1.4019 -0.3195 1.7836
H -2.5072 0.7210 0.8029
H -1.9410 0.9231 -1.5375
H 2.0640 2.3629 1.1783
H 0.7800 2.7300 0.5227
23
Frame 37
C -0.8621 -0.1387 -0.3296
C 0.6291 -0.3582 -0.1983
O 1.3669 2.0023 0.7705
C 1.5026 0.0124 -1.3033
C 1.1682 -0.9507 1.0289
O -1.0189 0.7680 -1.4164
C -1.4467 0.4566 0.9467
C -1.5212 -1.4775 -0.6524
H 1.5477 1.1474 -1.3108
H 1.0472 -0.2629 -2.2932
H 2.5387 -0.3914 -1.2129
H 2.1434 -1.4764 0.8614
H 0.4426 -1.6409 1.5330
H 1.3603 -0.0860 1.7411
H -1.1633 -1.8588 -1.6361
H -2.6281 -1.3280 -0.7113
H -1.3084 -2.2265 0.1419
H -0.8920 1.3802 1.2287
H -1.3926 -0.2776 1.7800
H -2.5179 0.7220 0.7736
H -1.9676 0.8699 -1.5748
H 2.1347 2.3368 1.2213
H 0.8374 2.7781 0.6120
23
Frame 38
C -0.8728 -0.1547 -0.3469
C 0.6193 -0.3586 -0.2119
O 1.4067 2.0172 0.8128
C 1.4961 0.0428 -1.3041
C 1.1579 -0.9565 1.0111
O -1.0431 0.7209 -1.4618
C -1.4527 0.4745 0.9187
C -1.5262 -1.5102 -0.6289
H 1.5295 1.1825 -1.2854
H 1.0490 -0.2149 -2.3061
H 2.5371 -0.3526 -1.2164
H 2.1317 -1.4844 0.8403
H 0.4325 -1.6457 1.5165
H 1.3559 -0.0936 1.7247
H -1.1666 -1.9216 -1.6029
H -2.6337 -1.3663 -0.6937
H -1.3103 -2.2352 0.1910
H -0.9045 1.4155 1.1687
H -1.3832 -0.2357 1.7764
H -2.5286 0.7230 0.7443
H -1.9942 0.8168 -1.6120
H 2.2053 2.3107 1.2644
H 0.8949 2.8262 0.7012
23
Frame 39
C -0.8789 -0.1686 -0.3591
C 0.6124 -0.3634 -0.2218
O 1.4352 2.0377 0.8466
C 1.4907 0.0608 -1.3015
C 1.1518 -0.9611 0.9986
O -1.0559 0.6879 -1.4874
C -1.4553 0.4815 0.8980
C -1.5318 -1.5297 -0.6158
H 1.5223 1.2004 -1.2559
H 1.0492 -0.1743 -2.3116
H 2.5327 -0.3334 -1.2188
H 2.1198 -1.4992 0.8239
H 0.4248 -1.6409 1.5140
H 1.3660 -0.0956 1.7051
H -1.1718 -1.9591 -1.5816
H -2.6394 -1.3877 -0.6836
H -1.3157 -2.2389 0.2176
H -0.9058 1.4262 1.1313
H -1.3838 -0.2150 1.7669
H -2.5315 0.7278 0.7220
H -2.0077 0.7766 -1.6377
H 2.2535 2.3190 1.2700
H 0.9193 2.8492 0.7810
23
Frame 40
C -0.8845 -0.1820 -0.3711
C 0.6060 -0.3683 -0.2315
O 1.4628 2.0583 0.8795
C 1.4856 0.0763 -1.2991
C 1.1464 -0.9651 0.9869
O -1.0675 0.6555 -1.5122
C -1.4580 0.4883 0.8771
C -1.5371 -1.5480 -0.6037
H 1.5186 1.2150 -1.2270
H 1.0485 -0.1356 -2.3162
H 2.5279 -0.3190 -1.2221
H 2.1071 -1.5152 0.8081
H 0.4174 -1.6333 1.5141
H 1.3789 -0.0968 1.6849
H -1.1801 -1.9921 -1.5640
H -2.6450 -1.4080 -0.6696
H -1.3171 -2.2439 0.2397
H -0.9086 1.4371 1.0931
H -1.3837 -0.1938 1.7570
H -2.5348 0.7307 0.6997
H -2.0200 0.7395 -1.6612
H 2.2980 2.3334 1.2733
H 0.9392 2.8671 0.8644
23
Frame 41
C -0.8898 -0.1941 -0.3822
C 0.5998 -0.3731 -0.2405
O 1.4919 2.0786 0.9121
C 1.4803 0.0884 -1.2974
C 1.1406 -0.9675 0.9766
O -1.0778 0.6278 -1.5334
C -1.4603 0.4935 0.8584
C -1.5424 -1.5639 -0.5941
H 1.5128 1.2261 -1.2035
H 1.0480 -0.1055 -2.3202
H 2.5234 -0.3062 -1.2242
H 2.0971 -1.5254 0.7963
H 0.4110 -1.6276 1.5129
H 1.3855 -0.0960 1.6677
H -1.1900 -2.0190 -1.5511
H -2.6507 -1.4256 -0.6556
H -1.3170 -2.2495 0.2563
H -0.9123 1.4468 1.0576
H -1.3812 -0.1751 1.7481
H -2.5381 0.7310 0.6810
H -2.0308 0.7024 -1.6850
H 2.3414 2.3533 1.2745
H 0.9586 2.8804 0.9458
23
Frame 42
C -0.8943 -0.2056 -0.3922
C 0.5942 -0.3784 -0.2489
O 1.5177 2.1003 0.9436
C 1.4752 0.0984 -1.2958
C 1.1356 -0.9699 0.9671
O -1.0869 0.6026 -1.5519
C -1.4620 0.4972 0.8416
C -1.5474 -1.5782 -0.5860
H 1.5102 1.2345 -1.1802
H 1.0460 -0.0757 -2.3235
H 2.5183 -0.2979 -1.2281
H 2.0876 -1.5356 0.7855
H 0.4053 -1.6218 1.5122
H 1.3925 -0.0958 1.6515
H -1.2000 -2.0426 -1.5403
H -2.6561 -1.4412 -0.6424
H -1.3165 -2.2550 0.2699
H -0.9136 1.4529 1.0277
H -1.3809 -0.1604 1.7391
H -2.5402 0.7325 0.6636
H -2.0402 0.6675 -1.7061
H 2.3774 2.3768 1.2794
H 0.9780 2.8953 1.0139
23
Frame 43
C -0.8982 -0.2162 -0.4013
C 0.5892 -0.3835 -0.2568
O 1.5413 2.1235 0.9742
C 1.4701 0.1063 -1.2950
C 1.1314 -0.9726 0.9578
O -1.0950 0.5796 -1.5684
C -1.4633 0.4999 0.8265
C -1.5519 -1.5911 -0.5787
H 1.5060 1.2409 -1.1617
H 1.0438 -0.0521 -2.3265
H 2.5136 -0.2901 -1.2316
H 2.0791 -1.5456 0.7745
H 0.4008 -1.6172 1.5110
H 1.3996 -0.0966 1.6363
H -1.2076 -2.0649 -1.5296
H -2.6608 -1.4547 -0.6325
H -1.3178 -2.2594 0.2831
H -0.9137 1.4569 1.0018
H -1.3817 -0.1485 1.7305
H -2.5415 0.7345 0.6474
H -2.0486 0.6369 -1.7243
H 2.4081 2.4019 1.2886
H 0.9971 2.9121 1.0749
23
Frame 44
C -0.9018 -0.2266 -0.4101
C 0.5843 -0.3886 -0.2648
O 1.5640 2.1469 1.0047
C 1.4648 0.1131 -1.2949
C 1.1275 -0.9749 0.9486
O -1.1029 0.5575 -1.5841
C -1.4644 0.5020 0.8120
C -1.5561 -1.6035 -0.5719
H 1.5014 1.2461 -1.1464
H 1.0413 -0.0317 -2.3296
H 2.5089 -0.2829 -1.2356
H 2.0717 -1.5538 0.7643
H 0.3970 -1.6132 1.5090
H 1.4053 -0.0970 1.6216
H -1.2138 -2.0868 -1.5186
H -2.6651 -1.4676 -0.6245
H -1.3200 -2.2630 0.2961
H -0.9125 1.4595 0.9785
H -1.3836 -0.1386 1.7218
H -2.5420 0.7375 0.6313
H -2.0568 0.6090 -1.7403
H 2.4364 2.4273 1.3012
H 1.0165 2.9293 1.1318
