23
Frame 1
C -0.7609 0.1959 -0.1155
C 0.7724 0.0222 0.0300
O 1.2954 1.4923 0.2209
C 1.4796 -0.4256 -1.2184
C 1.2418 -0.6708 1.2819
O -0.8532 1.4914 -0.7257
C -1.4728 0.2302 1.2259
C -1.3580 -0.8843 -1.0079
H 1.1219 0.1438 -2.1128
H 1.2687 -1.5142 -1.3823
H 2.5868 -0.2944 -1.1161
H 2.3571 -0.7628 1.2854
H 0.7949 -1.6980 1.3081
H 0.9266 -0.1201 2.2025
H -0.9934 -0.7762 -2.0580
H -2.4727 -0.7951 -1.0099
H -1.0842 -1.8956 -0.6228
H -1.0416 1.0186 1.8889
H -1.3963 -0.7609 1.7346
H -2.5556 0.4637 1.0697
H -1.7491 1.6061 -1.0683
H 1.2119 1.9677 -0.6521
H 0.6808 1.9661 0.8419
23
Frame 2
C -0.7668 0.1803 -0.1174
C 0.7586 -0.0325 0.0247
O 1.3034 1.5320 0.2392
C 1.4863 -0.4188 -1.2275
C 1.2488 -0.6848 1.2862
O -0.8388 1.4727 -0.7355
C -1.4768 0.2290 1.2255
C -1.3777 -0.8965 -1.0055
H 1.1209 0.1695 -2.1067
H 1.3031 -1.5073 -1.4286
H 2.5893 -0.2645 -1.1110
H 2.3656 -0.7571 1.2848
H 0.8192 -1.7191 1.3417
H 0.9279 -0.1176 2.1954
H -0.9969 -0.8083 -2.0519
H -2.4899 -0.7812 -1.0225
H -1.1328 -1.9099 -0.6066
H -1.0347 1.0140 1.8848
H -1.4115 -0.7616 1.7362
H -2.5567 0.4754 1.0694
H -1.7363 1.6008 -1.0694
H 1.2334 1.9907 -0.6356
H 0.6621 1.9948 0.8305
23
Frame 3
C -0.7713 0.1623 -0.1207
C 0.7454 -0.0874 0.0174
O 1.3074 1.5714 0.2662
C 1.4942 -0.4042 -1.2371
C 1.2530 -0.7060 1.2846
O -0.8227 1.4487 -0.7517
C -1.4777 0.2322 1.2240
C -1.3988 -0.9139 -0.9992
H 1.1152 0.2002 -2.0998
H 1.3489 -1.4919 -1.4756
H 2.5910 -0.2185 -1.1058
H 2.3702 -0.7720 1.2743
H 0.8284 -1.7413 1.3706
H 0.9365 -0.1187 2.1833
H -0.9973 -0.8570 -2.0400
H -2.5065 -0.7652 -1.0377
H -1.1928 -1.9264 -0.5768
H -1.0279 1.0220 1.8723
H -1.4175 -0.7524 1.7467
H -2.5561 0.4843 1.0672
H -1.7206 1.5884 -1.0803
H 1.2583 2.0204 -0.6081
H 0.6408 2.0251 0.8262
23
Frame 4
C -0.7747 0.1428 -0.1248
C 0.7333 -0.1402 0.0082
O 1.3073 1.6133 0.2968
C 1.5030 -0.3843 -1.2452
C 1.2542 -0.7319 1.2785
O -0.8071 1.4218 -0.7705
C -1.4755 0.2355 1.2222
C -1.4197 -0.9340 -0.9910
H 1.1034 0.2276 -2.0937
H 1.4101 -1.4712 -1.5160
H 2.5901 -0.1548 -1.0982
H 2.3702 -0.8142 1.2545
H 0.8146 -1.7584 1.4015
H 0.9576 -0.1155 2.1656
H -0.9950 -0.9152 -2.0240
H -2.5207 -0.7481 -1.0563
H -1.2588 -1.9428 -0.5410
H -1.0171 1.0308 1.8577
H -1.4202 -0.7424 1.7580
H -2.5525 0.4931 1.0656
H -1.7059 1.5723 -1.0921
H 1.2873 2.0536 -0.5768
H 0.6161 2.0623 0.8210
23
Frame 5
C -0.7768 0.1205 -0.1303
C 0.7231 -0.1891 -0.0028
O 1.2991 1.6613 0.3271
C 1.5140 -0.3592 -1.2505
C 1.2525 -0.7592 1.2696
O -0.7959 1.3927 -0.7885
C -1.4706 0.2326 1.2198
C -1.4362 -0.9577 -0.9850
H 1.0985 0.2610 -2.0856
H 1.4730 -1.4415 -1.5555
H 2.5896 -0.0898 -1.0812
H 2.3581 -0.9224 1.2137
H 0.7437 -1.7417 1.4675
H 1.0315 -0.0773 2.1329
H -0.9947 -0.9705 -2.0109
H -2.5303 -0.7431 -1.0721
H -1.3112 -1.9608 -0.5119
H -0.9969 1.0255 1.8472
H -1.4275 -0.7418 1.7629
H -2.5443 0.5051 1.0651
H -1.6953 1.5499 -1.1055
H 1.3091 2.0976 -0.5439
H 0.5876 2.1079 0.8180
23
Frame 6
C -0.7785 0.1011 -0.1358
C 0.7177 -0.2162 -0.0091
O 1.2745 1.6988 0.3553
C 1.5248 -0.3317 -1.2494
C 1.2524 -0.7777 1.2622
O -0.7951 1.3671 -0.8051
C -1.4695 0.2258 1.2151
C -1.4407 -0.9833 -0.9811
H 1.1049 0.3023 -2.0721
H 1.5133 -1.4061 -1.5851
H 2.5925 -0.0442 -1.0582
H 2.3128 -1.0865 1.1610
H 0.6446 -1.6545 1.5721
H 1.1865 -0.0215 2.0747
H -1.0039 -0.9998 -2.0092
H -2.5356 -0.7700 -1.0627
H -1.3126 -1.9844 -0.5044
H -0.9523 0.9718 1.8602
H -1.4890 -0.7576 1.7371
H -2.5215 0.5651 1.0642
H -1.6937 1.5202 -1.1267
H 1.3259 2.1340 -0.5116
H 0.5424 2.1474 0.8083
23
Frame 7
C -0.7802 0.0881 -0.1389
C 0.7159 -0.2242 -0.0095
O 1.2473 1.7204 0.3728
C 1.5321 -0.3096 -1.2450
C 1.2566 -0.7834 1.2592
O -0.8012 1.3504 -0.8145
C -1.4739 0.2159 1.2106
C -1.4358 -1.0029 -0.9814
H 1.1132 0.3357 -2.0596
H 1.5310 -1.3780 -1.6009
H 2.5962 -0.0183 -1.0401
H 2.2536 -1.2474 1.1110
H 0.5591 -1.5340 1.6855
H 1.3688 0.0312 2.0112
H -1.0042 -1.0131 -2.0118
H -2.5333 -0.8001 -1.0560
H -1.2951 -2.0035 -0.5071
H -0.9069 0.8941 1.8877
H -1.5763 -0.7815 1.6952
H -2.4949 0.6409 1.0642
H -1.6984 1.4950 -1.1437
H 1.3262 2.1571 -0.4903
H 0.5003 2.1671 0.8014
23
Frame 8
C -0.7824 0.0675 -0.1445
C 0.7104 -0.2501 -0.0139
O 1.2158 1.7593 0.4039
C 1.5405 -0.2831 -1.2400
C 1.2600 -0.8007 1.2521
O -0.8018 1.3232 -0.8316
C -1.4769 0.2087 1.2038
C -1.4383 -1.0306 -0.9782
H 1.1283 0.3924 -2.0338
H 1.5469 -1.3370 -1.6393
H 2.6015 0.0024 -1.0112
H 2.1822 -1.4093 1.0679
H 0.4977 -1.4141 1.7984
H 1.5486 0.0604 1.9251
H -1.0080 -1.0472 -2.0090
H -2.5359 -0.8282 -1.0520
H -1.2972 -2.0283 -0.4980
H -0.8701 0.8354 1.9004
H -1.6474 -0.7935 1.6657
H -2.4698 0.7024 1.0589
H -1.6978 1.4619 -1.1672
H 1.3435 2.1994 -0.4494
H 0.4503 2.2091 0.7921
23
Frame 9
C -0.7828 0.0459 -0.1517
C 0.7023 -0.2929 -0.0252
O 1.1972 1.8134 0.4353
C 1.5473 -0.2687 -1.2364
C 1.2557 -0.8302 1.2405
O -0.7918 1.2944 -0.8509
C -1.4703 0.2072 1.1987
C -1.4535 -1.0540 -0.9724
H 1.1404 0.4351 -2.0094
H 1.5697 -1.3055 -1.6802
H 2.6029 0.0156 -0.9807
H 2.1544 -1.4746 1.0593
H 0.4881 -1.3929 1.8322
H 1.5910 0.0519 1.8691
H -1.0246 -1.0873 -2.0034
H -2.5484 -0.8370 -1.0475
H -1.3265 -2.0479 -0.4806
H -0.8549 0.8397 1.8828
H -1.6459 -0.7881 1.6730
H -2.4604 0.7061 1.0518
H -1.6891 1.4392 -1.1807
H 1.3776 2.2548 -0.4052
H 0.4218 2.2758 0.7815
23
Frame 10
C -0.7866 0.0294 -0.1626
C 0.6960 -0.3126 -0.0394
O 1.1822 1.8430 0.4729
C 1.5491 -0.2469 -1.2397
C 1.2461 -0.8520 1.2242
O -0.8013 1.2596 -0.8895
C -1.4628 0.2214 1.1891
C -1.4647 -1.0874 -0.9517
H 1.1740 0.5117 -1.9635
H 1.5324 -1.2422 -1.7471
H 2.6085 -0.0200 -0.9745
H 2.1584 -1.4762 1.0517
H 0.4857 -1.4302 1.8061
H 1.5542 0.0350 1.8577
H -1.0477 -1.1424 -1.9857
H -2.5600 -0.8713 -1.0187
H -1.3321 -2.0698 -0.4410
H -0.8490 0.8822 1.8453
H -1.6187 -0.7600 1.6941
H -2.4609 0.7017 1.0384
H -1.7049 1.4070 -1.1980
H 1.4878 2.2887 -0.2671
H 0.4144 2.3318 0.6991
23
Frame 11
C -0.7947 0.0161 -0.1775
C 0.6906 -0.3121 -0.0563
O 1.1633 1.8456 0.5241
C 1.5479 -0.2096 -1.2495
C 1.2341 -0.8678 1.2023
O -0.8302 1.2149 -0.9518
C -1.4561 0.2521 1.1739
C -1.4710 -1.1350 -0.9150
H 1.2293 0.6327 -1.8949
H 1.4438 -1.1384 -1.8460
H 2.6186 -0.0911 -0.9871
H 2.1706 -1.4547 1.0358
H 0.4820 -1.4877 1.7493
H 1.4914 0.0109 1.8672
H -1.0728 -1.2201 -1.9537
H -2.5699 -0.9343 -0.9688
H -1.3164 -2.0969 -0.3741
H -0.8465 0.9507 1.7917
H -1.5852 -0.7087 1.7210
H -2.4652 0.7064 1.0185
H -1.7446 1.3607 -1.2251
H 1.6670 2.2971 -0.0300
H 0.4141 2.3693 0.5459
23
Frame 12
C -0.8028 0.0027 -0.1924
C 0.6851 -0.3116 -0.0731
O 1.1444 1.8481 0.5753
C 1.5467 -0.1723 -1.2593
C 1.2222 -0.8836 1.1804
O -0.8591 1.1702 -1.0141
C -1.4494 0.2829 1.1586
C -1.4773 -1.1826 -0.8783
H 1.2846 0.7536 -1.8262
H 1.3551 -1.0345 -1.9448
H 2.6287 -0.1622 -0.9997
H 2.1827 -1.4332 1.0199
H 0.4783 -1.5452 1.6924
H 1.4285 -0.0132 1.8767
H -1.0979 -1.2979 -1.9217
H -2.5798 -0.9973 -0.9189
H -1.3007 -2.1240 -0.3072
H -0.8440 1.0192 1.7382
H -1.5517 -0.6574 1.7480
H -2.4695 0.7111 0.9985
H -1.7843 1.3144 -1.2522
H 1.8461 2.3055 0.2072
H 0.4138 2.4069 0.3926
23
Frame 13
C -0.8060 -0.0103 -0.2046
C 0.6827 -0.3178 -0.0869
O 1.1305 1.8564 0.5976
C 1.5450 -0.1545 -1.2692
C 1.2170 -0.8950 1.1647
O -0.8739 1.1322 -1.0621
C -1.4421 0.3058 1.1444
C -1.4823 -1.2187 -0.8505
H 1.3487 0.8396 -1.7521
H 1.2694 -0.9326 -2.0294
H 2.6283 -0.2515 -1.0274
H 2.1929 -1.4205 1.0102
H 0.4800 -1.5814 1.6578
H 1.3903 -0.0271 1.8763
H -1.1171 -1.3587 -1.8966
H -2.5866 -1.0414 -0.8813
H -1.2919 -2.1443 -0.2569
H -0.8420 1.0727 1.6914
H -1.5215 -0.6161 1.7676
H -2.4711 0.7113 0.9807
H -1.8056 1.2788 -1.2756
H 1.9281 2.3372 0.4188
H 0.4269 2.4358 0.2833
23
Frame 14
C -0.8045 -0.0228 -0.2142
C 0.6834 -0.3309 -0.0976
O 1.1216 1.8703 0.5909
C 1.5427 -0.1562 -1.2793
C 1.2187 -0.9019 1.1552
O -0.8748 1.1007 -1.0959
C -1.4342 0.3209 1.1313
C -1.4858 -1.2434 -0.8318
H 1.4216 0.8905 -1.6724
H 1.1867 -0.8328 -2.0998
H 2.6175 -0.3588 -1.0703
H 2.2011 -1.4166 1.0065
H 0.4870 -1.5964 1.6453
H 1.3769 -0.0307 1.8663
H -1.1302 -1.4026 -1.8785
H -2.5903 -1.0665 -0.8560
H -1.2898 -2.1580 -0.2233
H -0.8406 1.1112 1.6514
H -1.4946 -0.5846 1.7798
H -2.4702 0.7067 0.9652
H -1.8085 1.2537 -1.2953
H 1.9128 2.3921 0.6047
H 0.4535 2.4561 0.2179
23
Frame 15
C -0.8018 -0.0337 -0.2213
C 0.6851 -0.3436 -0.1076
O 1.1208 1.8891 0.5641
C 1.5415 -0.1614 -1.2890
C 1.2230 -0.9088 1.1456
O -0.8747 1.0735 -1.1232
C -1.4238 0.3353 1.1213
C -1.4889 -1.2643 -0.8127
H 1.5243 0.9230 -1.5760
H 1.1092 -0.7055 -2.1620
H 2.5908 -0.4830 -1.1252
H 2.2081 -1.4193 0.9990
H 0.4949 -1.6066 1.6368
H 1.3756 -0.0350 1.8539
H -1.1391 -1.4437 -1.8582
H -2.5931 -1.0855 -0.8346
H -1.2915 -2.1679 -0.1884
H -0.8322 1.1430 1.6171
H -1.4704 -0.5556 1.7911
H -2.4644 0.7084 0.9547
H -1.8093 1.2237 -1.3206
H 1.8404 2.4442 0.7861
H 0.4754 2.4740 0.1490
23
Frame 16
C -0.7981 -0.0430 -0.2260
C 0.6876 -0.3560 -0.1169
O 1.1283 1.9128 0.5170
C 1.5413 -0.1699 -1.2984
C 1.2300 -0.9159 1.1357
O -0.8736 1.0504 -1.1440
C -1.4107 0.3491 1.1146
C -1.4914 -1.2816 -0.7932
H 1.6569 0.9371 -1.4629
H 1.0367 -0.5507 -2.2158
H 2.5481 -0.6239 -1.1922
H 2.2139 -1.4285 0.9877
H 0.5035 -1.6121 1.6322
H 1.3867 -0.0401 1.8394
H -1.1435 -1.4822 -1.8355
H -2.5948 -1.0982 -0.8171
H -1.2970 -2.1742 -0.1524
H -0.8168 1.1681 1.5886
H -1.4487 -0.5290 1.8016
H -2.4537 0.7160 0.9494
H -1.8080 1.1888 -1.3513
H 1.7108 2.4934 0.9630
H 0.4927 2.4895 0.0765
23
Frame 17
C -0.8194 -0.0749 -0.2605
C 0.6681 -0.3567 -0.1440
O 1.2078 1.9426 0.6015
C 1.5284 -0.1091 -1.3000
C 1.2094 -0.9275 1.1001
O -0.9220 0.9563 -1.2348
C -1.4227 0.3849 1.0586
C -1.5013 -1.3469 -0.7463
H 1.6205 1.0072 -1.4122
H 1.0402 -0.4548 -2.2416
H 2.5450 -0.5464 -1.1991
H 2.1904 -1.4445 0.9456
H 0.4832 -1.6217 1.5991
H 1.3779 -0.0554 1.8066
H -1.1501 -1.6077 -1.7690
H -2.6059 -1.1748 -0.7818
H -1.3008 -2.1916 -0.0543
H -0.8419 1.2388 1.4686
H -1.4300 -0.4452 1.7944
H -2.4751 0.7180 0.8908
H -1.8612 1.0825 -1.4258
H 1.8521 2.4412 1.0491
H 0.6076 2.5857 0.2550
23
Frame 18
C -0.8408 -0.1068 -0.2951
C 0.6486 -0.3575 -0.1712
O 1.2874 1.9725 0.6860
C 1.5155 -0.0484 -1.3017
C 1.1888 -0.9391 1.0645
O -0.9705 0.8621 -1.3256
C -1.4347 0.4208 1.0027
C -1.5113 -1.4122 -0.6993
H 1.5841 1.0773 -1.3615
H 1.0437 -0.3588 -2.2674
H 2.5418 -0.4689 -1.2060
H 2.1669 -1.4604 0.9035
H 0.4629 -1.6313 1.5661
H 1.3691 -0.0707 1.7739
H -1.1567 -1.7333 -1.7026
H -2.6170 -1.2514 -0.7466
H -1.3046 -2.2091 0.0438
H -0.8669 1.3095 1.3487
H -1.4113 -0.3614 1.7872
H -2.4965 0.7200 0.8322
H -1.9144 0.9762 -1.5003
H 1.9934 2.3890 1.1352
H 0.7225 2.6819 0.4335
23
Frame 19
C -0.8621 -0.1387 -0.3296
C 0.6291 -0.3582 -0.1983
O 1.3669 2.0023 0.7705
C 1.5026 0.0124 -1.3033
C 1.1682 -0.9507 1.0289
O -1.0189 0.7680 -1.4164
C -1.4467 0.4566 0.9467
C -1.5212 -1.4775 -0.6524
H 1.5477 1.1474 -1.3108
H 1.0472 -0.2629 -2.2932
H 2.5387 -0.3914 -1.2129
H 2.1434 -1.4764 0.8614
H 0.4426 -1.6409 1.5330
H 1.3603 -0.0860 1.7411
H -1.1633 -1.8588 -1.6361
H -2.6281 -1.3280 -0.7113
H -1.3084 -2.2265 0.1419
H -0.8920 1.3802 1.2287
H -1.3926 -0.2776 1.7800
H -2.5179 0.7220 0.7736
H -1.9676 0.8699 -1.5748
H 2.1347 2.3368 1.2213
H 0.8374 2.7781 0.6120
23
Frame 20
C -0.8789 -0.1686 -0.3591
C 0.6124 -0.3634 -0.2218
O 1.4352 2.0377 0.8466
C 1.4907 0.0608 -1.3015
C 1.1518 -0.9611 0.9986
O -1.0559 0.6879 -1.4874
C -1.4553 0.4815 0.8980
C -1.5318 -1.5297 -0.6158
H 1.5223 1.2004 -1.2559
H 1.0492 -0.1743 -2.3116
H 2.5327 -0.3334 -1.2188
H 2.1198 -1.4992 0.8239
H 0.4248 -1.6409 1.5140
H 1.3660 -0.0956 1.7051
H -1.1718 -1.9591 -1.5816
H -2.6394 -1.3877 -0.6836
H -1.3157 -2.2389 0.2176
H -0.9058 1.4262 1.1313
H -1.3838 -0.2150 1.7669
H -2.5315 0.7278 0.7220
H -2.0077 0.7766 -1.6377
H 2.2535 2.3190 1.2700
H 0.9193 2.8492 0.7810
23
Frame 21
C -0.8898 -0.1941 -0.3822
C 0.5998 -0.3731 -0.2405
O 1.4919 2.0786 0.9121
C 1.4803 0.0884 -1.2974
C 1.1406 -0.9675 0.9766
O -1.0778 0.6278 -1.5334
C -1.4603 0.4935 0.8584
C -1.5424 -1.5639 -0.5941
H 1.5128 1.2261 -1.2035
H 1.0480 -0.1055 -2.3202
H 2.5234 -0.3062 -1.2242
H 2.0971 -1.5254 0.7963
H 0.4110 -1.6276 1.5129
H 1.3855 -0.0960 1.6677
H -1.1900 -2.0190 -1.5511
H -2.6507 -1.4256 -0.6556
H -1.3170 -2.2495 0.2563
H -0.9123 1.4468 1.0576
H -1.3812 -0.1751 1.7481
H -2.5381 0.7310 0.6810
H -2.0308 0.7024 -1.6850
H 2.3414 2.3533 1.2745
H 0.9586 2.8804 0.9458
23
Frame 22
C -0.8982 -0.2162 -0.4013
C 0.5892 -0.3835 -0.2568
O 1.5413 2.1235 0.9742
C 1.4701 0.1063 -1.2950
C 1.1314 -0.9726 0.9578
O -1.0950 0.5796 -1.5684
C -1.4633 0.4999 0.8265
C -1.5519 -1.5911 -0.5787
H 1.5060 1.2409 -1.1617
H 1.0438 -0.0521 -2.3265
H 2.5136 -0.2901 -1.2316
H 2.0791 -1.5456 0.7745
H 0.4008 -1.6172 1.5110
H 1.3996 -0.0966 1.6363
H -1.2076 -2.0649 -1.5296
H -2.6608 -1.4547 -0.6325
H -1.3178 -2.2594 0.2831
H -0.9137 1.4569 1.0018
H -1.3817 -0.1485 1.7305
H -2.5415 0.7345 0.6474
H -2.0486 0.6369 -1.7243
H 2.4081 2.4019 1.2886
H 0.9971 2.9121 1.0749
23
Frame 23
C -0.9018 -0.2266 -0.4101
C 0.5843 -0.3886 -0.2648
O 1.5640 2.1469 1.0047
C 1.4648 0.1131 -1.2949
C 1.1275 -0.9749 0.9486
O -1.1029 0.5575 -1.5841
C -1.4644 0.5020 0.8120
C -1.5561 -1.6035 -0.5719
H 1.5014 1.2461 -1.1464
H 1.0413 -0.0317 -2.3296
H 2.5089 -0.2829 -1.2356
H 2.0717 -1.5538 0.7643
H 0.3970 -1.6132 1.5090
H 1.4053 -0.0970 1.6216
H -1.2138 -2.0868 -1.5186
H -2.6651 -1.4676 -0.6245
H -1.3200 -2.2630 0.2961
H -0.9125 1.4595 0.9785
H -1.3836 -0.1386 1.7218
H -2.5420 0.7375 0.6313
H -2.0568 0.6090 -1.7403
H 2.4364 2.4273 1.3012
H 1.0165 2.9293 1.1318
