21
Frame 1
N -0.2787 0.0398 0.6632
N -0.8873 -0.5131 -0.3741
C -0.3456 -0.5640 -1.5500
C 1.0335 -0.0319 -1.9486
C -1.1821 -1.2354 -2.6425
H 0.6386 0.4444 0.5689
S -1.0352 0.0238 2.0907
O -2.1568 0.8943 2.2029
O -1.2636 -1.2591 2.6642
C 0.2811 0.7854 3.0887
H 1.8018 1.5092 -0.2914
O 1.8152 0.9932 0.5016
H 1.1827 0.1643 3.0393
H -0.0504 0.8661 4.1302
H 0.5041 1.7848 2.6978
H 1.8113 -0.6499 -1.4857
H 1.1383 1.0041 -1.6067
H 1.1383 -0.0691 -3.0390
H -0.5163 -1.6912 -3.3842
H -1.8145 -0.4854 -3.1312
H -1.8145 -2.0102 -2.1941
21
Frame 2
N -0.2826 0.0373 0.6645
N -0.8890 -0.5147 -0.3735
C -0.3459 -0.5638 -1.5489
C 1.0330 -0.0300 -1.9458
C -1.1803 -1.2348 -2.6431
H 0.6504 0.4512 0.5704
S -1.0378 0.0212 2.0913
O -2.1604 0.8905 2.2053
O -1.2637 -1.2612 2.6674
C 0.2788 0.7855 3.0865
H 1.8038 1.4983 -0.2986
O 1.8160 0.9963 0.4999
H 1.1811 0.1654 3.0365
H -0.0513 0.8669 4.1284
H 0.5000 1.7847 2.6943
H 1.8111 -0.6492 -1.4853
H 1.1376 1.0047 -1.6004
H 1.1376 -0.0633 -3.0362
H -0.5131 -1.6894 -3.3843
H -1.8126 -0.4849 -3.1320
H -1.8126 -2.0105 -2.1963
21
Frame 3
N -0.2865 0.0349 0.6658
N -0.8908 -0.5164 -0.3730
C -0.3461 -0.5636 -1.5478
C 1.0325 -0.0280 -1.9431
C -1.1785 -1.2342 -2.6437
H 0.6622 0.4580 0.5719
S -1.0405 0.0185 2.0919
O -2.1640 0.8867 2.2078
O -1.2638 -1.2632 2.6706
C 0.2766 0.7855 3.0844
H 1.8057 1.4873 -0.3058
O 1.8168 0.9995 0.4981
H 1.1795 0.1666 3.0336
H -0.0521 0.8677 4.1266
H 0.4959 1.7845 2.6908
H 1.8109 -0.6486 -1.4849
H 1.1369 1.0053 -1.5940
H 1.1369 -0.0575 -3.0334
H -0.5100 -1.6876 -3.3844
H -1.8108 -0.4844 -3.1328
H -1.8108 -2.0108 -2.1985
21
Frame 4
N -0.2905 0.0324 0.6671
N -0.8925 -0.5180 -0.3724
C -0.3464 -0.5633 -1.5468
C 1.0320 -0.0261 -1.9403
C -1.1767 -1.2337 -2.6444
H 0.6739 0.4647 0.5734
S -1.0431 0.0159 2.0925
O -2.1676 0.8829 2.2102
O -1.2639 -1.2653 2.6738
C 0.2743 0.7856 3.0822
H 1.8077 1.4764 -0.3130
O 1.8175 1.0026 0.4964
H 1.1779 0.1677 3.0308
H -0.0530 0.8684 4.1248
H 0.4917 1.7844 2.6872
H 1.8106 -0.6479 -1.4846
H 1.1362 1.0058 -1.5877
H 1.1362 -0.0517 -3.0305
H -0.5068 -1.6858 -3.3845
H -1.8089 -0.4838 -3.1336
H -1.8089 -2.0112 -2.2007
21
Frame 5
N -0.2944 0.0299 0.6684
N -0.8942 -0.5197 -0.3719
C -0.3466 -0.5631 -1.5457
C 1.0315 -0.0241 -1.9375
C -1.1749 -1.2331 -2.6450
H 0.6857 0.4715 0.5749
S -1.0458 0.0132 2.0931
O -2.1712 0.8791 2.2126
O -1.2640 -1.2674 2.6769
C 0.2720 0.7856 3.0800
H 1.8096 1.4654 -0.3201
O 1.8183 1.0057 0.4947
H 1.1764 0.1689 3.0279
H -0.0538 0.8692 4.1230
H 0.4876 1.7842 2.6837
H 1.8104 -0.6473 -1.4842
H 1.1355 1.0064 -1.5813
H 1.1355 -0.0458 -3.0277
H -0.5037 -1.6840 -3.3845
H -1.8070 -0.4833 -3.1344
H -1.8070 -2.0115 -2.2029
21
Frame 6
N -0.2983 0.0274 0.6697
N -0.8960 -0.5213 -0.3713
C -0.3469 -0.5629 -1.5446
C 1.0311 -0.0222 -1.9347
C -1.1731 -1.2325 -2.6456
H 0.6975 0.4783 0.5764
S -1.0484 0.0106 2.0938
O -2.1748 0.8754 2.2150
O -1.2641 -1.2694 2.6801
C 0.2698 0.7857 3.0779
H 1.8116 1.4545 -0.3273
O 1.8191 1.0088 0.4929
H 1.1748 0.1700 3.0251
H -0.0547 0.8700 4.1211
H 0.4835 1.7841 2.6802
H 1.8102 -0.6466 -1.4838
H 1.1347 1.0070 -1.5750
H 1.1347 -0.0400 -3.0249
H -0.5005 -1.6822 -3.3846
H -1.8052 -0.4828 -3.1352
H -1.8052 -2.0118 -2.2051
21
Frame 7
N -0.3022 0.0250 0.6710
N -0.8977 -0.5229 -0.3708
C -0.3471 -0.5627 -1.5435
C 1.0306 -0.0203 -1.9320
C -1.1713 -1.2319 -2.6462
H 0.7093 0.4851 0.5779
S -1.0511 0.0080 2.0944
O -2.1784 0.8716 2.2175
O -1.2642 -1.2715 2.6833
C 0.2675 0.7857 3.0757
H 1.8136 1.4436 -0.3345
O 1.8199 1.0120 0.4912
H 1.1732 0.1711 3.0223
H -0.0556 0.8708 4.1193
H 0.4794 1.7840 2.6767
H 1.8100 -0.6460 -1.4834
H 1.1340 1.0076 -1.5686
H 1.1340 -0.0342 -3.0221
H -0.4974 -1.6804 -3.3847
H -1.8033 -0.4823 -3.1360
H -1.8033 -2.0121 -2.2073
21
Frame 8
N -0.3061 0.0225 0.6723
N -0.8994 -0.5246 -0.3702
C -0.3474 -0.5625 -1.5424
C 1.0301 -0.0183 -1.9292
C -1.1695 -1.2313 -2.6468
H 0.7211 0.4919 0.5794
S -1.0537 0.0053 2.0950
O -2.1820 0.8678 2.2199
O -1.2643 -1.2736 2.6865
C 0.2652 0.7858 3.0735
H 1.8155 1.4326 -0.3417
O 1.8207 1.0151 0.4895
H 1.1716 0.1723 3.0194
H -0.0564 0.8716 4.1175
H 0.4753 1.7838 2.6732
H 1.8098 -0.6453 -1.4830
H 1.1333 1.0082 -1.5623
H 1.1333 -0.0284 -3.0192
H -0.4942 -1.6786 -3.3848
H -1.8014 -0.4818 -3.1368
H -1.8014 -2.0124 -2.2095
21
Frame 9
N -0.3101 0.0200 0.6735
N -0.9011 -0.5262 -0.3697
C -0.3476 -0.5622 -1.5414
C 1.0296 -0.0164 -1.9264
C -1.1677 -1.2307 -2.6475
H 0.7328 0.4987 0.5808
S -1.0564 0.0027 2.0956
O -2.1856 0.8640 2.2223
O -1.2643 -1.2757 2.6897
C 0.2630 0.7858 3.0713
H 1.8175 1.4217 -0.3489
O 1.8214 1.0182 0.4878
H 1.1700 0.1734 3.0166
H -0.0573 0.8723 4.1157
H 0.4711 1.7837 2.6697
H 1.8095 -0.6447 -1.4827
H 1.1326 1.0087 -1.5559
H 1.1326 -0.0226 -3.0164
H -0.4911 -1.6768 -3.3849
H -1.7996 -0.4813 -3.1376
H -1.7996 -2.0127 -2.2117
21
Frame 10
N -0.3140 0.0175 0.6748
N -0.9029 -0.5279 -0.3691
C -0.3479 -0.5620 -1.5403
C 1.0291 -0.0145 -1.9236
C -1.1659 -1.2302 -2.6481
H 0.7446 0.5054 0.5823
S -1.0590 0.0001 2.0962
O -2.1892 0.8602 2.2247
O -1.2644 -1.2777 2.6929
C 0.2607 0.7859 3.0692
H 1.8194 1.4107 -0.3561
O 1.8222 1.0213 0.4860
H 1.1684 0.1746 3.0137
H -0.0582 0.8731 4.1139
H 0.4670 1.7836 2.6661
H 1.8093 -0.6440 -1.4823
H 1.1319 1.0093 -1.5496
H 1.1319 -0.0168 -3.0136
H -0.4879 -1.6750 -3.3850
H -1.7977 -0.4807 -3.1384
H -1.7977 -2.0131 -2.2139
21
Frame 11
N -0.3179 0.0151 0.6761
N -0.9046 -0.5295 -0.3685
C -0.3482 -0.5618 -1.5392
C 1.0286 -0.0125 -1.9209
C -1.1641 -1.2296 -2.6487
H 0.7564 0.5122 0.5838
S -1.0617 -0.0026 2.0968
O -2.1928 0.8564 2.2272
O -1.2645 -1.2798 2.6961
C 0.2584 0.7860 3.0670
H 1.8214 1.3998 -0.3633
O 1.8230 1.0245 0.4843
H 1.1668 0.1757 3.0109
H -0.0590 0.8739 4.1121
H 0.4629 1.7834 2.6626
H 1.8091 -0.6433 -1.4819
H 1.1312 1.0099 -1.5433
H 1.1312 -0.0110 -3.0108
H -0.4847 -1.6732 -3.3851
H -1.7958 -0.4802 -3.1392
H -1.7958 -2.0134 -2.2161
21
Frame 12
N -0.3218 0.0126 0.6774
N -0.9063 -0.5312 -0.3680
C -0.3484 -0.5616 -1.5381
C 1.0281 -0.0106 -1.9181
C -1.1623 -1.2290 -2.6493
H 0.7682 0.5190 0.5853
S -1.0643 -0.0052 2.0974
O -2.1964 0.8526 2.2296
O -1.2646 -1.2819 2.6992
C 0.2562 0.7860 3.0648
H 1.8233 1.3888 -0.3704
O 1.8238 1.0276 0.4826
H 1.1653 0.1769 3.0080
H -0.0599 0.8747 4.1103
H 0.4588 1.7833 2.6591
H 1.8089 -0.6427 -1.4815
H 1.1305 1.0105 -1.5369
H 1.1305 -0.0051 -3.0079
H -0.4816 -1.6714 -3.3851
H -1.7940 -0.4797 -3.1400
H -1.7940 -2.0137 -2.2183
21
Frame 13
N -0.3257 0.0101 0.6787
N -0.9081 -0.5328 -0.3674
C -0.3487 -0.5614 -1.5370
C 1.0276 -0.0086 -1.9153
C -1.1605 -1.2284 -2.6499
H 0.7800 0.5258 0.5868
S -1.0670 -0.0079 2.0980
O -2.2000 0.8488 2.2320
O -1.2647 -1.2839 2.7024
C 0.2539 0.7861 3.0627
H 1.8253 1.3779 -0.3776
O 1.8246 1.0307 0.4808
H 1.1637 0.1780 3.0052
H -0.0607 0.8755 4.1085
H 0.4547 1.7831 2.6556
H 1.8087 -0.6420 -1.4811
H 1.1298 1.0111 -1.5306
H 1.1298 0.0007 -3.0051
H -0.4784 -1.6696 -3.3852
H -1.7921 -0.4792 -3.1408
H -1.7921 -2.0140 -2.2205
21
Frame 14
N -0.3297 0.0077 0.6800
N -0.9098 -0.5344 -0.3669
C -0.3489 -0.5611 -1.5360
C 1.0271 -0.0067 -1.9126
C -1.1587 -1.2278 -2.6506
H 0.7917 0.5326 0.5883
S -1.0696 -0.0105 2.0986
O -2.2036 0.8450 2.2345
O -1.2648 -1.2860 2.7056
C 0.2516 0.7861 3.0605
H 1.8273 1.3670 -0.3848
O 1.8253 1.0339 0.4791
H 1.1621 0.1791 3.0024
H -0.0616 0.8762 4.1067
H 0.4505 1.7830 2.6521
H 1.8084 -0.6414 -1.4808
H 1.1291 1.0116 -1.5242
H 1.1291 0.0065 -3.0023
H -0.4753 -1.6678 -3.3853
H -1.7902 -0.4787 -3.1416
H -1.7902 -2.0143 -2.2227
21
Frame 15
N -0.3336 0.0052 0.6813
N -0.9115 -0.5361 -0.3663
C -0.3492 -0.5609 -1.5349
C 1.0266 -0.0048 -1.9098
C -1.1569 -1.2272 -2.6512
H 0.8035 0.5394 0.5898
S -1.0723 -0.0131 2.0992
O -2.2072 0.8412 2.2369
O -1.2649 -1.2881 2.7088
C 0.2494 0.7862 3.0583
H 1.8292 1.3560 -0.3920
O 1.8261 1.0370 0.4774
H 1.1605 0.1803 2.9995
H -0.0625 0.8770 4.1049
H 0.4464 1.7829 2.6486
H 1.8082 -0.6407 -1.4804
H 1.1284 1.0122 -1.5179
H 1.1284 0.0123 -2.9995
H -0.4721 -1.6660 -3.3854
H -1.7884 -0.4782 -3.1424
H -1.7884 -2.0146 -2.2249
21
Frame 16
N -0.3375 0.0027 0.6826
N -0.9133 -0.5377 -0.3658
C -0.3494 -0.5607 -1.5338
C 1.0262 -0.0028 -1.9070
C -1.1550 -1.2267 -2.6518
H 0.8153 0.5461 0.5913
S -1.0749 -0.0158 2.0999
O -2.2108 0.8375 2.2393
O -1.2650 -1.2901 2.7120
C 0.2471 0.7862 3.0562
H 1.8312 1.3451 -0.3992
O 1.8269 1.0401 0.4756
H 1.1589 0.1814 2.9967
H -0.0633 0.8778 4.1030
H 0.4423 1.7827 2.6450
H 1.8080 -0.6401 -1.4800
H 1.1276 1.0128 -1.5115
H 1.1276 0.0181 -2.9966
H -0.4690 -1.6641 -3.3855
H -1.7865 -0.4776 -3.1432
H -1.7865 -2.0150 -2.2270
21
Frame 17
N -0.3414 0.0002 0.6839
N -0.9150 -0.5394 -0.3652
C -0.3497 -0.5605 -1.5327
C 1.0257 -0.0009 -1.9042
C -1.1532 -1.2261 -2.6524
H 0.8271 0.5529 0.5928
S -1.0776 -0.0184 2.1005
O -2.2144 0.8337 2.2417
O -1.2651 -1.2922 2.7152
C 0.2449 0.7863 3.0540
H 1.8331 1.3341 -0.4064
O 1.8277 1.0432 0.4739
H 1.1573 0.1826 2.9938
H -0.0642 0.8786 4.1012
H 0.4382 1.7826 2.6415
H 1.8078 -0.6394 -1.4796
H 1.1269 1.0134 -1.5052
H 1.1269 0.0239 -2.9938
H -0.4658 -1.6623 -3.3856
H -1.7847 -0.4771 -3.1440
H -1.7847 -2.0153 -2.2292
21
Frame 18
N -0.3454 -0.0022 0.6852
N -0.9167 -0.5410 -0.3647
C -0.3499 -0.5602 -1.5317
C 1.0252 0.0010 -1.9015
C -1.1514 -1.2255 -2.6531
H 0.8388 0.5597 0.5943
S -1.0802 -0.0210 2.1011
O -2.2180 0.8299 2.2442
O -1.2652 -1.2943 2.7184
C 0.2426 0.7863 3.0518
H 1.8351 1.3232 -0.4136
O 1.8284 1.0464 0.4722
H 1.1557 0.1837 2.9910
H -0.0651 0.8793 4.0994
H 0.4340 1.7825 2.6380
H 1.8075 -0.6388 -1.4793
H 1.1262 1.0139 -1.4988
H 1.1262 0.0297 -2.9910
H -0.4627 -1.6605 -3.3857
H -1.7828 -0.4766 -3.1448
H -1.7828 -2.0156 -2.2314
21
Frame 19
N -0.3493 -0.0047 0.6865
N -0.9185 -0.5426 -0.3641
C -0.3502 -0.5600 -1.5306
C 1.0247 0.0030 -1.8987
C -1.1496 -1.2249 -2.6537
H 0.8506 0.5665 0.5958
S -1.0829 -0.0237 2.1017
O -2.2216 0.8261 2.2466
O -1.2653 -1.2963 2.7216
C 0.2403 0.7864 3.0497
H 1.8371 1.3123 -0.4208
O 1.8292 1.0495 0.4704
H 1.1541 0.1848 2.9882
H -0.0659 0.8801 4.0976
H 0.4299 1.7823 2.6345
H 1.8073 -0.6381 -1.4789
H 1.1255 1.0145 -1.4925
H 1.1255 0.0355 -2.9882
H -0.4595 -1.6587 -3.3858
H -1.7809 -0.4761 -3.1456
H -1.7809 -2.0159 -2.2336
21
Frame 20
N -0.3532 -0.0072 0.6878
N -0.9202 -0.5443 -0.3636
C -0.3504 -0.5598 -1.5295
C 1.0242 0.0049 -1.8959
C -1.1478 -1.2243 -2.6543
H 0.8624 0.5733 0.5973
S -1.0855 -0.0263 2.1023
O -2.2252 0.8223 2.2490
O -1.2654 -1.2984 2.7247
C 0.2381 0.7864 3.0475
H 1.8390 1.3013 -0.4279
O 1.8300 1.0526 0.4687
H 1.1526 0.1860 2.9853
H -0.0668 0.8809 4.0958
H 0.4258 1.7822 2.6310
H 1.8071 -0.6375 -1.4785
H 1.1248 1.0151 -1.4861
H 1.1248 0.0414 -2.9853
H -0.4564 -1.6569 -3.3858
H -1.7791 -0.4756 -3.1464
H -1.7791 -2.0162 -2.2358
21
Frame 21
N -0.3571 -0.0096 0.6891
N -0.9219 -0.5459 -0.3630
C -0.3507 -0.5596 -1.5284
C 1.0237 0.0069 -1.8932
C -1.1460 -1.2237 -2.6549
H 0.8742 0.5801 0.5988
S -1.0882 -0.0290 2.1029
O -2.2288 0.8185 2.2515
O -1.2655 -1.3005 2.7279
C 0.2358 0.7865 3.0453
H 1.8410 1.2904 -0.4351
O 1.8308 1.0558 0.4670
H 1.1510 0.1871 2.9825
H -0.0676 0.8817 4.0940
H 0.4217 1.7820 2.6275
H 1.8069 -0.6368 -1.4781
H 1.1241 1.0157 -1.4798
H 1.1241 0.0472 -2.9825
H -0.4532 -1.6551 -3.3859
H -1.7772 -0.4751 -3.1472
H -1.7772 -2.0165 -2.2380
21
Frame 22
N -0.3610 -0.0121 0.6904
N -0.9237 -0.5476 -0.3624
C -0.3510 -0.5594 -1.5273
C 1.0232 0.0088 -1.8904
C -1.1442 -1.2232 -2.6555
H 0.8860 0.5868 0.6003
S -1.0908 -0.0316 2.1035
O -2.2324 0.8147 2.2539
O -1.2656 -1.3025 2.7311
C 0.2335 0.7866 3.0432
H 1.8429 1.2794 -0.4423
O 1.8316 1.0589 0.4652
H 1.1494 0.1883 2.9796
H -0.0685 0.8825 4.0922
H 0.4176 1.7819 2.6239
H 1.8067 -0.6361 -1.4777
H 1.1234 1.0163 -1.4735
H 1.1234 0.0530 -2.9797
H -0.4500 -1.6533 -3.3860
H -1.7753 -0.4745 -3.1480
H -1.7753 -2.0169 -2.2402
21
Frame 23
N -0.3650 -0.0146 0.6916
N -0.9254 -0.5492 -0.3619
C -0.3512 -0.5591 -1.5263
C 1.0227 0.0107 -1.8876
C -1.1424 -1.2226 -2.6562
H 0.8977 0.5936 0.6017
S -1.0935 -0.0342 2.1041
O -2.2360 0.8109 2.2563
O -1.2656 -1.3046 2.7343
C 0.2313 0.7866 3.0410
H 1.8449 1.2685 -0.4495
O 1.8323 1.0620 0.4635
H 1.1478 0.1894 2.9768
H -0.0694 0.8832 4.0904
H 0.4134 1.7818 2.6204
H 1.8064 -0.6355 -1.4774
H 1.1227 1.0168 -1.4671
H 1.1227 0.0588 -2.9769
H -0.4469 -1.6515 -3.3861
H -1.7735 -0.4740 -3.1488
H -1.7735 -2.0172 -2.2424
21
Frame 24
N -0.3689 -0.0171 0.6929
N -0.9271 -0.5509 -0.3613
C -0.3515 -0.5589 -1.5252
C 1.0222 0.0127 -1.8848
C -1.1406 -1.2220 -2.6568
H 0.9095 0.6004 0.6032
S -1.0961 -0.0369 2.1047
O -2.2396 0.8071 2.2587
O -1.2657 -1.3067 2.7375
C 0.2290 0.7867 3.0388
H 1.8468 1.2575 -0.4567
O 1.8331 1.0651 0.4618
H 1.1462 0.1906 2.9739
H -0.0702 0.8840 4.0886
H 0.4093 1.7816 2.6169
H 1.8062 -0.6348 -1.4770
H 1.1220 1.0174 -1.4608
H 1.1220 0.0646 -2.9740
H -0.4437 -1.6497 -3.3862
H -1.7716 -0.4735 -3.1496
H -1.7716 -2.0175 -2.2446
21
Frame 25
N -0.3728 -0.0195 0.6942
N -0.9288 -0.5525 -0.3608
C -0.3517 -0.5587 -1.5241
C 1.0217 0.0146 -1.8821
C -1.1388 -1.2214 -2.6574
H 0.9213 0.6072 0.6047
S -1.0988 -0.0395 2.1053
O -2.2432 0.8033 2.2612
O -1.2658 -1.3088 2.7407
C 0.2267 0.7867 3.0366
H 1.8488 1.2466 -0.4639
O 1.8339 1.0683 0.4601
H 1.1446 0.1917 2.9711
H -0.0711 0.8848 4.0867
H 0.4052 1.7815 2.6134
H 1.8060 -0.6342 -1.4766
H 1.1213 1.0180 -1.4544
H 1.1213 0.0704 -2.9712
H -0.4406 -1.6479 -3.3863
H -1.7697 -0.4730 -3.1504
H -1.7697 -2.0178 -2.2468
21
Frame 26
N -0.3767 -0.0220 0.6955
N -0.9306 -0.5541 -0.3602
C -0.3520 -0.5585 -1.5230
C 1.0213 0.0165 -1.8793
C -1.1370 -1.2208 -2.6580
H 0.9331 0.6140 0.6062
S -1.1014 -0.0421 2.1060
O -2.2468 0.7996 2.2636
O -1.2659 -1.3108 2.7439
C 0.2245 0.7868 3.0345
H 1.8508 1.2357 -0.4711
O 1.8347 1.0714 0.4583
H 1.1430 0.1928 2.9683
H -0.0720 0.8856 4.0849
H 0.4011 1.7814 2.6099
H 1.8058 -0.6335 -1.4762
H 1.1205 1.0186 -1.4481
H 1.1205 0.0762 -2.9684
H -0.4374 -1.6461 -3.3864
H -1.7679 -0.4725 -3.1512
H -1.7679 -2.0181 -2.2490
21
Frame 27
N -0.3806 -0.0245 0.6968
N -0.9323 -0.5558 -0.3597
C -0.3522 -0.5583 -1.5219
C 1.0208 0.0185 -1.8765
C -1.1352 -1.2202 -2.6586
H 0.9449 0.6208 0.6077
S -1.1041 -0.0448 2.1066
O -2.2504 0.7958 2.2660
O -1.2660 -1.3129 2.7470
C 0.2222 0.7868 3.0323
H 1.8527 1.2247 -0.4782
O 1.8355 1.0745 0.4566
H 1.1415 0.1940 2.9654
H -0.0728 0.8864 4.0831
H 0.3970 1.7812 2.6064
H 1.8056 -0.6329 -1.4758
H 1.1198 1.0192 -1.4417
H 1.1198 0.0821 -2.9656
H -0.4343 -1.6443 -3.3864
H -1.7660 -0.4720 -3.1520
H -1.7660 -2.0185 -2.2512
21
Frame 28
N -0.3846 -0.0270 0.6981
N -0.9340 -0.5574 -0.3591
C -0.3525 -0.5580 -1.5209
C 1.0203 0.0204 -1.8737
C -1.1334 -1.2197 -2.6593
H 0.9566 0.6275 0.6092
S -1.1067 -0.0474 2.1072
O -2.2540 0.7920 2.2684
O -1.2661 -1.3150 2.7502
C 0.2199 0.7869 3.0301
H 1.8547 1.2138 -0.4854
O 1.8362 1.0776 0.4549
H 1.1399 0.1951 2.9626
H -0.0737 0.8871 4.0813
H 0.3928 1.7811 2.6028
H 1.8053 -0.6322 -1.4755
H 1.1191 1.0197 -1.4354
H 1.1191 0.0879 -2.9628
H -0.4311 -1.6425 -3.3865
H -1.7641 -0.4714 -3.1528
H -1.7641 -2.0188 -2.2534
21
Frame 29
N -0.3885 -0.0294 0.6994
N -0.9358 -0.5591 -0.3586
C -0.3527 -0.5578 -1.5198
C 1.0198 0.0224 -1.8710
C -1.1316 -1.2191 -2.6599
H 0.9684 0.6343 0.6107
S -1.1094 -0.0501 2.1078
O -2.2576 0.7882 2.2709
O -1.2662 -1.3170 2.7534
C 0.2177 0.7869 3.0280
H 1.8566 1.2028 -0.4926
O 1.8370 1.0808 0.4531
H 1.1383 0.1963 2.9597
H -0.0745 0.8879 4.0795
H 0.3887 1.7809 2.5993
H 1.8051 -0.6316 -1.4751
H 1.1184 1.0203 -1.4290
H 1.1184 0.0937 -2.9599
H -0.4280 -1.6407 -3.3866
H -1.7623 -0.4709 -3.1536
H -1.7623 -2.0191 -2.2556
21
Frame 30
N -0.3924 -0.0319 0.7007
N -0.9375 -0.5607 -0.3580
C -0.3530 -0.5576 -1.5187
C 1.0193 0.0243 -1.8682
C -1.1298 -1.2185 -2.6605
H 0.9802 0.6411 0.6122
S -1.1120 -0.0527 2.1084
O -2.2612 0.7844 2.2733
O -1.2663 -1.3191 2.7566
C 0.2154 0.7870 3.0258
H 1.8586 1.1919 -0.4998
O 1.8378 1.0839 0.4514
H 1.1367 0.1974 2.9569
H -0.0754 0.8887 4.0777
H 0.3846 1.7808 2.5958
H 1.8049 -0.6309 -1.4747
H 1.1177 1.0209 -1.4227
H 1.1177 0.0995 -2.9571
H -0.4248 -1.6389 -3.3867
H -1.7604 -0.4704 -3.1544
H -1.7604 -2.0194 -2.2578
