11
Frame 1
N -2.7557 0.0012 -0.0409
N -1.6151 0.0011 -0.0250
C -0.3342 0.0004 -0.0094
C 0.4322 1.2829 0.0045
C 0.4303 -1.2833 0.0077
H 1.5260 1.0617 -0.0407
H 0.2299 1.8636 0.9394
H 0.1690 1.9251 -0.8731
H 1.5248 -1.0634 -0.0207
H 0.1783 -1.9194 -0.8776
H 0.2145 -1.8698 0.9358
11
Frame 2
N -2.7681 0.0006 -0.0511
N -1.6385 0.0007 -0.0614
C -0.3269 0.0004 -0.0002
C 0.4370 1.2822 0.0099
C 0.4356 -1.2824 0.0131
H 1.5315 1.0669 -0.0377
H 0.2335 1.8636 0.9443
H 0.1682 1.9216 -0.8677
H 1.5307 -1.0680 -0.0186
H 0.1776 -1.9162 -0.8717
H 0.2194 -1.8692 0.9411
11
Frame 3
N -2.7805 0.0001 -0.0614
N -1.6620 0.0002 -0.0977
C -0.3196 0.0004 0.0090
C 0.4419 1.2815 0.0154
C 0.4409 -1.2815 0.0184
H 1.5370 1.0720 -0.0347
H 0.2371 1.8635 0.9492
H 0.1675 1.9181 -0.8622
H 1.5366 -1.0725 -0.0165
H 0.1769 -1.9130 -0.8658
H 0.2243 -1.8687 0.9464
11
Frame 4
N -2.7928 -0.0005 -0.0716
N -1.6854 -0.0002 -0.1341
C -0.3124 0.0003 0.0182
C 0.4467 1.2809 0.0208
C 0.4461 -1.2806 0.0238
H 1.5425 1.0772 -0.0317
H 0.2406 1.8635 0.9542
H 0.1667 1.9145 -0.8568
H 1.5425 -1.0771 -0.0144
H 0.1761 -1.9099 -0.8600
H 0.2293 -1.8681 0.9517
11
Frame 5
N -2.8052 -0.0010 -0.0818
N -1.7088 -0.0006 -0.1705
C -0.3051 0.0003 0.0274
C 0.4515 1.2802 0.0262
C 0.4514 -1.2797 0.0292
H 1.5480 1.0824 -0.0287
H 0.2442 1.8635 0.9591
H 0.1660 1.9110 -0.8513
H 1.5484 -1.0817 -0.0123
H 0.1754 -1.9067 -0.8541
H 0.2342 -1.8675 0.9569
11
Frame 6
N -2.8176 -0.0016 -0.0921
N -1.7323 -0.0010 -0.2069
C -0.2978 0.0003 0.0365
C 0.4563 1.2795 0.0317
C 0.4567 -1.2789 0.0345
H 1.5536 1.0876 -0.0257
H 0.2478 1.8634 0.9640
H 0.1652 1.9075 -0.8459
H 1.5543 -1.0862 -0.0103
H 0.1747 -1.9035 -0.8482
H 0.2391 -1.8670 0.9622
11
Frame 7
N -2.8300 -0.0021 -0.1023
N -1.7557 -0.0015 -0.2432
C -0.2905 0.0003 0.0457
C 0.4612 1.2788 0.0371
C 0.4620 -1.2780 0.0399
H 1.5591 1.0927 -0.0227
H 0.2514 1.8634 0.9689
H 0.1644 1.9040 -0.8405
H 1.5602 -1.0908 -0.0082
H 0.1740 -1.9003 -0.8423
H 0.2440 -1.8664 0.9675
11
Frame 8
N -2.8424 -0.0027 -0.1125
N -1.7791 -0.0019 -0.2796
C -0.2833 0.0002 0.0549
C 0.4660 1.2781 0.0425
C 0.4673 -1.2771 0.0453
H 1.5646 1.0979 -0.0197
H 0.2550 1.8634 0.9738
H 0.1637 1.9005 -0.8350
H 1.5661 -1.0954 -0.0061
H 0.1733 -1.8971 -0.8365
H 0.2490 -1.8658 0.9728
11
Frame 9
N -2.8547 -0.0032 -0.1227
N -1.8025 -0.0023 -0.3160
C -0.2760 0.0002 0.0641
C 0.4708 1.2775 0.0479
C 0.4725 -1.2762 0.0507
H 1.5701 1.1031 -0.0167
H 0.2585 1.8633 0.9787
H 0.1629 1.8969 -0.8296
H 1.5720 -1.1000 -0.0040
H 0.1725 -1.8939 -0.8306
H 0.2539 -1.8653 0.9781
11
Frame 10
N -2.8671 -0.0038 -0.1330
N -1.8260 -0.0027 -0.3524
C -0.2687 0.0002 0.0733
C 0.4756 1.2768 0.0534
C 0.4778 -1.2753 0.0560
H 1.5756 1.1083 -0.0137
H 0.2621 1.8633 0.9837
H 0.1621 1.8934 -0.8241
H 1.5779 -1.1045 -0.0019
H 0.1718 -1.8908 -0.8247
H 0.2588 -1.8647 0.9834
11
Frame 11
N -2.8795 -0.0044 -0.1432
N -1.8494 -0.0032 -0.3887
C -0.2614 0.0002 0.0825
C 0.4805 1.2761 0.0588
C 0.4831 -1.2744 0.0614
H 1.5811 1.1134 -0.0107
H 0.2657 1.8633 0.9886
H 0.1614 1.8899 -0.8187
H 1.5838 -1.1091 0.0002
H 0.1711 -1.8876 -0.8188
H 0.2637 -1.8641 0.9887
11
Frame 12
N -2.8919 -0.0049 -0.1534
N -1.8728 -0.0036 -0.4251
C -0.2542 0.0001 0.0917
C 0.4853 1.2754 0.0642
C 0.4884 -1.2735 0.0668
H 1.5866 1.1186 -0.0077
H 0.2693 1.8632 0.9935
H 0.1606 1.8864 -0.8132
H 1.5897 -1.1137 0.0023
H 0.1704 -1.8844 -0.8130
H 0.2687 -1.8636 0.9939
11
Frame 13
N -2.9043 -0.0055 -0.1637
N -1.8963 -0.0040 -0.4615
C -0.2469 0.0001 0.1009
C 0.4901 1.2747 0.0697
C 0.4937 -1.2726 0.0721
H 1.5921 1.1238 -0.0047
H 0.2729 1.8632 0.9984
H 0.1599 1.8829 -0.8078
H 1.5956 -1.1182 0.0044
H 0.1697 -1.8812 -0.8071
H 0.2736 -1.8630 0.9992
11
Frame 14
N -2.9166 -0.0060 -0.1739
N -1.9197 -0.0045 -0.4978
C -0.2396 0.0001 0.1101
C 0.4950 1.2741 0.0751
C 0.4989 -1.2717 0.0775
H 1.5976 1.1289 -0.0017
H 0.2764 1.8632 1.0033
H 0.1591 1.8793 -0.8024
H 1.6015 -1.1228 0.0065
H 0.1689 -1.8780 -0.8012
H 0.2785 -1.8624 1.0045
11
Frame 15
N -2.9290 -0.0066 -0.1841
N -1.9431 -0.0049 -0.5342
C -0.2323 0.0001 0.1193
C 0.4998 1.2734 0.0805
C 0.5042 -1.2708 0.0829
H 1.6031 1.1341 0.0013
H 0.2800 1.8631 1.0082
H 0.1583 1.8758 -0.7969
H 1.6074 -1.1274 0.0086
H 0.1682 -1.8748 -0.7953
H 0.2834 -1.8619 1.0098
11
Frame 16
N -2.9414 -0.0071 -0.1944
N -1.9666 -0.0053 -0.5706
C -0.2251 0.0000 0.1284
C 0.5046 1.2727 0.0860
C 0.5095 -1.2700 0.0882
H 1.6087 1.1393 0.0044
H 0.2836 1.8631 1.0132
H 0.1576 1.8723 -0.7915
H 1.6133 -1.1319 0.0106
H 0.1675 -1.8717 -0.7895
H 0.2884 -1.8613 1.0151
11
Frame 17
N -2.9538 -0.0077 -0.2046
N -1.9900 -0.0057 -0.6070
C -0.2178 0.0000 0.1376
C 0.5094 1.2720 0.0914
C 0.5148 -1.2691 0.0936
H 1.6142 1.1445 0.0074
H 0.2872 1.8630 1.0181
H 0.1568 1.8688 -0.7860
H 1.6192 -1.1365 0.0127
H 0.1668 -1.8685 -0.7836
H 0.2933 -1.8608 1.0204
11
Frame 18
N -2.9662 -0.0082 -0.2148
N -2.0134 -0.0062 -0.6433
C -0.2105 -0.0000 0.1468
C 0.5143 1.2714 0.0968
C 0.5200 -1.2682 0.0990
H 1.6197 1.1496 0.0104
H 0.2907 1.8630 1.0230
H 0.1560 1.8652 -0.7806
H 1.6251 -1.1411 0.0148
H 0.1660 -1.8653 -0.7777
H 0.2982 -1.8602 1.0257
11
Frame 19
N -2.9785 -0.0088 -0.2251
N -2.0369 -0.0066 -0.6797
C -0.2032 -0.0000 0.1560
C 0.5191 1.2707 0.1023
C 0.5253 -1.2673 0.1043
H 1.6252 1.1548 0.0134
H 0.2943 1.8630 1.0279
H 0.1553 1.8617 -0.7752
H 1.6310 -1.1456 0.0169
H 0.1653 -1.8621 -0.7718
H 0.3031 -1.8596 1.0310
11
Frame 20
N -2.9909 -0.0093 -0.2353
N -2.0603 -0.0070 -0.7161
C -0.1960 -0.0001 0.1652
C 0.5239 1.2700 0.1077
C 0.5306 -1.2664 0.1097
H 1.6307 1.1600 0.0164
H 0.2979 1.8629 1.0328
H 0.1545 1.8582 -0.7697
H 1.6369 -1.1502 0.0190
H 0.1646 -1.8589 -0.7660
H 0.3081 -1.8591 1.0362
11
Frame 21
N -3.0033 -0.0099 -0.2455
N -2.0837 -0.0075 -0.7524
C -0.1887 -0.0001 0.1744
C 0.5288 1.2693 0.1131
C 0.5359 -1.2655 0.1151
H 1.6362 1.1651 0.0194
H 0.3015 1.8629 1.0377
H 0.1538 1.8547 -0.7643
H 1.6428 -1.1548 0.0211
H 0.1639 -1.8557 -0.7601
H 0.3130 -1.8585 1.0415
11
Frame 22
N -3.0157 -0.0105 -0.2558
N -2.1072 -0.0079 -0.7888
C -0.1814 -0.0001 0.1836
C 0.5336 1.2686 0.1186
C 0.5412 -1.2646 0.1204
H 1.6417 1.1703 0.0224
H 0.3051 1.8629 1.0427
H 0.1530 1.8512 -0.7588
H 1.6487 -1.1593 0.0232
H 0.1632 -1.8526 -0.7542
H 0.3179 -1.8579 1.0468
11
Frame 23
N -3.0280 -0.0110 -0.2660
N -2.1306 -0.0083 -0.8252
C -0.1741 -0.0001 0.1928
C 0.5384 1.2680 0.1240
C 0.5464 -1.2637 0.1258
H 1.6472 1.1755 0.0254
H 0.3086 1.8628 1.0476
H 0.1522 1.8476 -0.7534
H 1.6546 -1.1639 0.0253
H 0.1624 -1.8494 -0.7483
H 0.3228 -1.8574 1.0521
11
Frame 24
N -3.0404 -0.0116 -0.2762
N -2.1540 -0.0087 -0.8616
C -0.1669 -0.0002 0.2020
C 0.5432 1.2673 0.1294
C 0.5517 -1.2628 0.1312
H 1.6527 1.1807 0.0284
H 0.3122 1.8628 1.0525
H 0.1515 1.8441 -0.7479
H 1.6605 -1.1685 0.0274
H 0.1617 -1.8462 -0.7425
H 0.3278 -1.8568 1.0574
11
Frame 25
N -3.0528 -0.0121 -0.2864
N -2.1774 -0.0092 -0.8979
C -0.1596 -0.0002 0.2112
C 0.5481 1.2666 0.1348
C 0.5570 -1.2619 0.1366
H 1.6582 1.1858 0.0314
H 0.3158 1.8628 1.0574
H 0.1507 1.8406 -0.7425
H 1.6664 -1.1731 0.0295
H 0.1610 -1.8430 -0.7366
H 0.3327 -1.8562 1.0627
11
Frame 26
N -3.0652 -0.0127 -0.2967
N -2.2009 -0.0096 -0.9343
C -0.1523 -0.0002 0.2203
C 0.5529 1.2659 0.1403
C 0.5623 -1.2611 0.1419
H 1.6638 1.1910 0.0344
H 0.3194 1.8627 1.0623
H 0.1499 1.8371 -0.7371
H 1.6723 -1.1776 0.0315
H 0.1603 -1.8398 -0.7307
H 0.3376 -1.8557 1.0680
11
Frame 27
N -3.0776 -0.0132 -0.3069
N -2.2243 -0.0100 -0.9707
C -0.1450 -0.0002 0.2295
C 0.5577 1.2652 0.1457
C 0.5676 -1.2602 0.1473
H 1.6693 1.1962 0.0374
H 0.3230 1.8627 1.0672
H 0.1492 1.8336 -0.7316
H 1.6782 -1.1822 0.0336
H 0.1596 -1.8366 -0.7248
H 0.3425 -1.8551 1.0732
11
Frame 28
N -3.0899 -0.0138 -0.3171
N -2.2477 -0.0104 -1.0071
C -0.1378 -0.0003 0.2387
C 0.5625 1.2646 0.1511
C 0.5728 -1.2593 0.1527
H 1.6748 1.2014 0.0404
H 0.3265 1.8627 1.0722
H 0.1484 1.8300 -0.7262
H 1.6841 -1.1868 0.0357
H 0.1588 -1.8335 -0.7190
H 0.3475 -1.8545 1.0785
11
Frame 29
N -3.1023 -0.0143 -0.3274
N -2.2712 -0.0109 -1.0434
C -0.1305 -0.0003 0.2479
C 0.5674 1.2639 0.1566
C 0.5781 -1.2584 0.1580
H 1.6803 1.2065 0.0434
H 0.3301 1.8626 1.0771
H 0.1477 1.8265 -0.7207
H 1.6900 -1.1913 0.0378
H 0.1581 -1.8303 -0.7131
H 0.3524 -1.8540 1.0838
11
Frame 30
N -3.1147 -0.0149 -0.3376
N -2.2946 -0.0113 -1.0798
C -0.1232 -0.0003 0.2571
C 0.5722 1.2632 0.1620
C 0.5834 -1.2575 0.1634
H 1.6858 1.2117 0.0464
H 0.3337 1.8626 1.0820
H 0.1469 1.8230 -0.7153
H 1.6959 -1.1959 0.0399
H 0.1574 -1.8271 -0.7072
H 0.3573 -1.8534 1.0891
