20
Frame 1
C 0.5528 -0.6996 -0.4401
C -1.7462 0.1706 -1.0771
C 0.1744 1.7180 -1.1260
C -1.3586 1.6472 -1.3512
C 0.4485 0.6993 -0.0041
C -0.7764 -0.2854 0.0288
H -1.6219 -0.4218 -1.9786
H 0.6990 1.4497 -2.0382
H -1.8452 2.2746 -0.6110
H 0.9010 0.9546 0.9266
H -2.7792 0.0826 -0.7592
H 0.4886 2.7157 -0.8408
H -1.6560 1.9851 -2.3394
H -1.0966 -0.6448 0.9797
O 1.1927 -1.5166 -1.0366
O 0.8455 -0.9654 2.0284
C 1.6797 -2.0197 2.3301
H 2.0974 -2.5511 1.4508
H 1.2160 -2.8375 2.9307
H 2.5845 -1.7557 2.9271
20
Frame 2
C 0.5514 -0.6898 -0.3913
C -1.7439 0.1700 -1.0645
C 0.1741 1.7183 -1.1143
C -1.3563 1.6434 -1.3558
C 0.4364 0.7181 0.0258
C -0.7857 -0.2687 0.0574
H -1.6080 -0.4346 -1.9565
H 0.7085 1.4344 -2.0159
H -1.8525 2.2811 -0.6307
H 0.8810 0.9953 0.9533
H -2.7803 0.0844 -0.7571
H 0.4852 2.7213 -0.8426
H -1.6427 1.9661 -2.3519
H -1.1214 -0.6208 1.0052
O 1.1945 -1.5068 -0.9949
O 0.8483 -0.9759 2.0197
C 1.6882 -2.0376 2.2846
H 2.0779 -2.5534 1.3853
H 1.2365 -2.8619 2.8846
H 2.6088 -1.7829 2.8596
20
Frame 3
C 0.5462 -0.6836 -0.3448
C -1.7429 0.1705 -1.0521
C 0.1748 1.7176 -1.1007
C -1.3527 1.6400 -1.3600
C 0.4240 0.7328 0.0546
C -0.7974 -0.2533 0.0852
H -1.5963 -0.4464 -1.9338
H 0.7192 1.4210 -1.9922
H -1.8580 2.2885 -0.6509
H 0.8618 1.0279 0.9795
H -2.7829 0.0886 -0.7556
H 0.4837 2.7238 -0.8392
H -1.6263 1.9476 -2.3647
H -1.1495 -0.5961 1.0302
O 1.1882 -1.4995 -0.9613
O 0.8503 -0.9889 2.0081
C 1.6993 -2.0529 2.2399
H 2.0687 -2.5493 1.3231
H 1.2604 -2.8862 2.8349
H 2.6292 -1.8021 2.7996
20
Frame 4
C 0.5356 -0.6796 -0.3001
C -1.7441 0.1726 -1.0396
C 0.1767 1.7155 -1.0853
C -1.3474 1.6368 -1.3649
C 0.4102 0.7447 0.0840
C -0.8129 -0.2379 0.1130
H -1.5866 -0.4575 -1.9096
H 0.7327 1.4059 -1.9651
H -1.8617 2.2975 -0.6737
H 0.8430 1.0527 1.0073
H -2.7880 0.0969 -0.7556
H 0.4833 2.7249 -0.8334
H -1.6060 1.9286 -2.3782
H -1.1808 -0.5714 1.0553
O 1.1722 -1.4927 -0.9360
O 0.8518 -1.0051 1.9935
C 1.7140 -2.0665 2.1959
H 2.0730 -2.5401 1.2645
H 1.2880 -2.9115 2.7811
H 2.6470 -1.8139 2.7469
20
Frame 5
C 0.5282 -0.6745 -0.2551
C -1.7439 0.1733 -1.0270
C 0.1785 1.7130 -1.0716
C -1.3425 1.6329 -1.3676
C 0.3975 0.7578 0.1123
C -0.8257 -0.2231 0.1399
H -1.5763 -0.4686 -1.8865
H 0.7436 1.3888 -1.9401
H -1.8640 2.3037 -0.6918
H 0.8231 1.0816 1.0335
H -2.7912 0.1021 -0.7543
H 0.4843 2.7256 -0.8311
H -1.5890 1.9110 -2.3875
H -1.2093 -0.5465 1.0794
O 1.1597 -1.4827 -0.9120
O 0.8538 -1.0197 1.9791
C 1.7265 -2.0802 2.1522
H 2.0732 -2.5299 1.2063
H 1.3107 -2.9361 2.7265
H 2.6628 -1.8281 2.6955
20
Frame 6
C 0.5212 -0.6689 -0.2104
C -1.7433 0.1736 -1.0141
C 0.1802 1.7106 -1.0579
C -1.3377 1.6286 -1.3698
C 0.3853 0.7711 0.1399
C -0.8380 -0.2083 0.1666
H -1.5645 -0.4797 -1.8627
H 0.7540 1.3716 -1.9149
H -1.8663 2.3088 -0.7088
H 0.8031 1.1110 1.0589
H -2.7942 0.1058 -0.7532
H 0.4853 2.7263 -0.8294
H -1.5725 1.8929 -2.3962
H -1.2364 -0.5211 1.1037
O 1.1461 -1.4701 -0.8916
O 0.8567 -1.0345 1.9637
C 1.7388 -2.0943 2.1089
H 2.0727 -2.5217 1.1497
H 1.3315 -2.9594 2.6729
H 2.6779 -1.8424 2.6448
20
Frame 7
C 0.5131 -0.6636 -0.1657
C -1.7424 0.1735 -1.0013
C 0.1822 1.7077 -1.0438
C -1.3324 1.6238 -1.3716
C 0.3728 0.7839 0.1676
C -0.8508 -0.1935 0.1934
H -1.5515 -0.4910 -1.8383
H 0.7644 1.3535 -1.8888
H -1.8676 2.3133 -0.7254
H 0.7828 1.1389 1.0846
H -2.7967 0.1089 -0.7533
H 0.4872 2.7260 -0.8273
H -1.5553 1.8746 -2.4041
H -1.2637 -0.4950 1.1282
O 1.1291 -1.4557 -0.8747
O 0.8602 -1.0490 1.9476
C 1.7515 -2.1077 2.0654
H 2.0724 -2.5124 1.0939
H 1.3522 -2.9813 2.6192
H 2.6926 -1.8549 2.5942
20
Frame 8
C 0.5066 -0.6553 -0.1203
C -1.7404 0.1721 -0.9878
C 0.1840 1.7049 -1.0296
C -1.3270 1.6177 -1.3733
C 0.3602 0.7993 0.1965
C -0.8625 -0.1779 0.2211
H -1.5357 -0.5036 -1.8121
H 0.7746 1.3336 -1.8615
H -1.8694 2.3161 -0.7424
H 0.7616 1.1702 1.1115
H -2.7981 0.1092 -0.7537
H 0.4886 2.7265 -0.8275
H -1.5385 1.8540 -2.4118
H -1.2890 -0.4679 1.1537
O 1.1124 -1.4334 -0.8620
O 0.8654 -1.0636 1.9309
C 1.7631 -2.1229 2.0215
H 2.0668 -2.5076 1.0385
H 1.3697 -3.0016 2.5677
H 2.7077 -1.8700 2.5407
20
Frame 9
C 0.5001 -0.6457 -0.0738
C -1.7371 0.1694 -0.9732
C 0.1852 1.7038 -1.0144
C -1.3214 1.6096 -1.3765
C 0.3476 0.8159 0.2255
C -0.8739 -0.1612 0.2506
H -1.5161 -0.5190 -1.7828
H 0.7860 1.3182 -1.8321
H -1.8731 2.3173 -0.7645
H 0.7407 1.2016 1.1385
H -2.7978 0.1073 -0.7539
H 0.4864 2.7290 -0.8251
H -1.5189 1.8287 -2.4214
H -1.3138 -0.4395 1.1811
O 1.0940 -1.4108 -0.8466
O 0.8767 -1.0716 1.9145
C 1.7737 -2.1381 1.9756
H 2.0549 -2.5038 0.9806
H 1.3819 -3.0191 2.5157
H 2.7250 -1.8920 2.4821
20
Frame 10
C 0.4942 -0.6350 -0.0281
C -1.7334 0.1660 -0.9582
C 0.1868 1.7019 -0.9997
C -1.3153 1.6007 -1.3785
C 0.3352 0.8332 0.2545
C -0.8846 -0.1446 0.2799
H -1.4964 -0.5344 -1.7526
H 0.7969 1.2996 -1.8022
H -1.8755 2.3174 -0.7845
H 0.7196 1.2337 1.1653
H -2.7972 0.1042 -0.7537
H 0.4860 2.7303 -0.8250
H -1.5003 1.8031 -2.4292
H -1.3370 -0.4109 1.2084
O 1.0743 -1.3835 -0.8354
O 0.8873 -1.0807 1.8962
C 1.7836 -2.1531 1.9295
H 2.0459 -2.4983 0.9242
H 1.3915 -3.0369 2.4611
H 2.7386 -1.9127 2.4278
20
Frame 11
C 0.4904 -0.6230 0.0166
C -1.7287 0.1613 -0.9422
C 0.1880 1.7009 -0.9848
C -1.3093 1.5906 -1.3802
C 0.3237 0.8513 0.2829
C -0.8934 -0.1282 0.3091
H -1.4756 -0.5507 -1.7209
H 0.8076 1.2829 -1.7719
H -1.8788 2.3158 -0.8051
H 0.6991 1.2666 1.1913
H -2.7951 0.0988 -0.7517
H 0.4841 2.7327 -0.8247
H -1.4815 1.7751 -2.4364
H -1.3571 -0.3831 1.2357
O 1.0559 -1.3536 -0.8249
O 0.9006 -1.0861 1.8764
C 1.7913 -2.1681 1.8829
H 2.0339 -2.4940 0.8684
H 1.3946 -3.0524 2.4066
H 2.7504 -1.9367 2.3728
20
Frame 12
C 0.4857 -0.6122 0.0599
C -1.7237 0.1566 -0.9267
C 0.1901 1.6985 -0.9700
C -1.3028 1.5807 -1.3805
C 0.3124 0.8680 0.3107
C -0.9026 -0.1125 0.3375
H -1.4539 -0.5660 -1.6899
H 0.8176 1.2643 -1.7417
H -1.8800 2.3131 -0.8225
H 0.6787 1.2974 1.2169
H -2.7927 0.0928 -0.7506
H 0.4845 2.7330 -0.8247
H -1.4631 1.7493 -2.4413
H -1.3774 -0.3561 1.2622
O 1.0356 -1.3238 -0.8153
O 0.9113 -1.0919 1.8548
C 1.7984 -2.1811 1.8362
H 2.0225 -2.4881 0.8134
H 1.3984 -3.0658 2.3529
H 2.7609 -1.9561 2.3186
20
Frame 13
C 0.4822 -0.6021 0.1006
C -1.7187 0.1518 -0.9109
C 0.1923 1.6959 -0.9553
C -1.2962 1.5706 -1.3798
C 0.3021 0.8836 0.3372
C -0.9105 -0.0984 0.3645
H -1.4336 -0.5802 -1.6594
H 0.8268 1.2464 -1.7123
H -1.8807 2.3098 -0.8382
H 0.6597 1.3258 1.2414
H -2.7898 0.0865 -0.7476
H 0.4853 2.7329 -0.8241
H -1.4451 1.7241 -2.4446
H -1.3954 -0.3314 1.2875
O 1.0164 -1.2944 -0.8068
O 0.9212 -1.0961 1.8307
C 1.8041 -2.1926 1.7899
H 2.0117 -2.4816 0.7602
H 1.3996 -3.0769 2.3002
H 2.7685 -1.9736 2.2668
20
Frame 14
C 0.4792 -0.5937 0.1385
C -1.7137 0.1471 -0.8958
C 0.1949 1.6927 -0.9410
C -1.2898 1.5614 -1.3774
C 0.2930 0.8971 0.3619
C -0.9176 -0.0859 0.3895
H -1.4140 -0.5927 -1.6307
H 0.8349 1.2284 -1.6842
H -1.8804 2.3061 -0.8498
H 0.6421 1.3512 1.2642
H -2.7866 0.0799 -0.7444
H 0.4876 2.7315 -0.8229
H -1.4291 1.7019 -2.4453
H -1.4116 -0.3091 1.3108
O 0.9979 -1.2670 -0.7991
O 0.9289 -1.0996 1.8042
C 1.8085 -2.2021 1.7447
H 2.0020 -2.4748 0.7094
H 1.3997 -3.0854 2.2499
H 2.7740 -1.9869 2.2176
20
Frame 15
C 0.4777 -0.5867 0.1733
C -1.7087 0.1423 -0.8811
C 0.1974 1.6895 -0.9273
C -1.2841 1.5529 -1.3734
C 0.2852 0.9091 0.3846
C -0.9231 -0.0752 0.4125
H -1.3953 -0.6035 -1.6040
H 0.8414 1.2111 -1.6581
H -1.8796 2.3021 -0.8576
H 0.6261 1.3738 1.2851
H -2.7830 0.0727 -0.7404
H 0.4906 2.7295 -0.8215
H -1.4155 1.6825 -2.4437
H -1.4250 -0.2894 1.3322
O 0.9814 -1.2412 -0.7923
O 0.9354 -1.1017 1.7755
C 1.8115 -2.2101 1.7010
H 1.9929 -2.4684 0.6614
H 1.3975 -3.0912 2.2022
H 2.7771 -1.9979 2.1716
20
Frame 16
C 0.4759 -0.5818 0.2061
C -1.7042 0.1381 -0.8666
C 0.2003 1.6856 -0.9138
C -1.2783 1.5450 -1.3687
C 0.2783 0.9187 0.4057
C -0.9283 -0.0661 0.4340
H -1.3789 -0.6130 -1.5786
H 0.8475 1.1945 -1.6329
H -1.8779 2.2986 -0.8637
H 0.6110 1.3936 1.3047
H -2.7798 0.0668 -0.7356
H 0.4945 2.7264 -0.8186
H -1.4022 1.6646 -2.4412
H -1.4375 -0.2713 1.3524
O 0.9648 -1.2181 -0.7859
O 0.9399 -1.1036 1.7451
C 1.8142 -2.2162 1.6582
H 1.9863 -2.4609 0.6153
H 1.3955 -3.0957 2.1555
H 2.7787 -2.0052 2.1285
20
Frame 17
C 0.4708 -0.5816 0.2365
C -1.7024 0.1365 -0.8537
C 0.2052 1.6787 -0.8999
C -1.2712 1.5393 -1.3630
C 0.2716 0.9239 0.4263
C -0.9357 -0.0586 0.4528
H -1.3687 -0.6197 -1.5561
H 0.8532 1.1733 -1.6077
H -1.8722 2.2980 -0.8671
H 0.5955 1.4077 1.3242
H -2.7792 0.0664 -0.7307
H 0.5041 2.7193 -0.8146
H -1.3883 1.6513 -2.4373
H -1.4523 -0.2545 1.3698
O 0.9456 -1.1997 -0.7804
O 0.9331 -1.1129 1.7132
C 1.8190 -2.2187 1.6170
H 1.9857 -2.4511 0.5716
H 1.4058 -3.1004 2.1124
H 2.7803 -1.9972 2.0867
20
Frame 18
C 0.4583 -0.5896 0.2646
C -1.7039 0.1387 -0.8430
C 0.2126 1.6680 -0.8848
C -1.2619 1.5369 -1.3564
C 0.2644 0.9216 0.4458
C -0.9481 -0.0531 0.4694
H -1.3640 -0.6217 -1.5372
H 0.8597 1.1486 -1.5830
H -1.8613 2.3017 -0.8677
H 0.5809 1.4115 1.3436
H -2.7822 0.0734 -0.7293
H 0.5200 2.7067 -0.8061
H -1.3716 1.6443 -2.4322
H -1.4734 -0.2381 1.3843
O 0.9177 -1.1910 -0.7757
O 0.9133 -1.1323 1.6793
C 1.8285 -2.2160 1.5774
H 1.9893 -2.4406 0.5307
H 1.4368 -3.1025 2.0791
H 2.7850 -1.9663 2.0412
20
Frame 19
C 0.4191 -0.6280 0.2630
C -1.7190 0.1565 -0.8464
C 0.2299 1.6411 -0.8706
C -1.2438 1.5464 -1.3490
C 0.2592 0.8856 0.4547
C -0.9744 -0.0598 0.4674
H -1.3923 -0.6064 -1.5437
H 0.8672 1.1107 -1.5691
H -1.8277 2.3212 -0.8582
H 0.5816 1.3633 1.3570
H -2.7982 0.1147 -0.7378
H 0.5603 2.6712 -0.7841
H -1.3458 1.6623 -2.4244
H -1.5070 -0.2389 1.3793
O 0.8678 -1.2237 -0.7865
O 0.8495 -1.1978 1.6579
C 1.8472 -2.1835 1.5656
H 2.0133 -2.4265 0.5247
H 1.5410 -3.0677 2.1024
H 2.7724 -1.8407 1.9978
20
Frame 20
C 0.3799 -0.6663 0.2614
C -1.7342 0.1744 -0.8499
C 0.2473 1.6142 -0.8563
C -1.2257 1.5560 -1.3415
C 0.2539 0.8497 0.4636
C -1.0007 -0.0666 0.4655
H -1.4205 -0.5912 -1.5503
H 0.8747 1.0729 -1.5552
H -1.7942 2.3407 -0.8487
H 0.5822 1.3152 1.3704
H -2.8142 0.1561 -0.7463
H 0.6006 2.6358 -0.7621
H -1.3201 1.6804 -2.4167
H -1.5405 -0.2396 1.3744
O 0.8178 -1.2565 -0.7973
O 0.7857 -1.2634 1.6364
C 1.8659 -2.1511 1.5538
H 2.0373 -2.4124 0.5188
H 1.6453 -3.0329 2.1256
H 2.7598 -1.7150 1.9545
20
Frame 21
C 0.3406 -0.7046 0.2597
C -1.7494 0.1922 -0.8534
C 0.2646 1.5873 -0.8420
C -1.2076 1.5655 -1.3341
C 0.2487 0.8137 0.4724
C -1.0271 -0.0733 0.4636
H -1.4488 -0.5760 -1.5568
H 0.8821 1.0350 -1.5414
H -1.7606 2.3601 -0.8393
H 0.5828 1.2670 1.3837
H -2.8303 0.1975 -0.7548
H 0.6409 2.6003 -0.7400
H -1.2943 1.6984 -2.4089
H -1.5741 -0.2404 1.3694
O 0.7679 -1.2893 -0.8081
O 0.7219 -1.3289 1.6149
C 1.8846 -2.1186 1.5419
H 2.0614 -2.3984 0.5129
H 1.7495 -2.9980 2.1489
H 2.7471 -1.5894 1.9111
20
Frame 22
C 0.3014 -0.7430 0.2581
C -1.7645 0.2101 -0.8568
C 0.2820 1.5604 -0.8278
C -1.1895 1.5750 -1.3267
C 0.2435 0.7777 0.4813
C -1.0534 -0.0800 0.4616
H -1.4771 -0.5607 -1.5633
H 0.8896 0.9972 -1.5275
H -1.7271 2.3796 -0.8298
H 0.5835 1.2188 1.3971
H -2.8463 0.2388 -0.7633
H 0.6812 2.5648 -0.7180
H -1.2686 1.7164 -2.4012
H -1.6077 -0.2412 1.3645
O 0.7180 -1.3220 -0.8189
O 0.6581 -1.3944 1.5935
C 1.9033 -2.0861 1.5301
H 2.0854 -2.3843 0.5069
H 1.8538 -2.9632 2.1722
H 2.7345 -1.4638 1.8678
20
Frame 23
C 0.2938 -0.7530 0.2618
C -1.7659 0.2121 -0.8540
C 0.2861 1.5530 -0.8208
C -1.1848 1.5754 -1.3212
C 0.2425 0.7689 0.4869
C -1.0582 -0.0822 0.4650
H -1.4783 -0.5588 -1.5600
H 0.8910 0.9866 -1.5202
H -1.7194 2.3816 -0.8238
H 0.5818 1.2087 1.4039
H -2.8477 0.2442 -0.7630
H 0.6902 2.5553 -0.7097
H -1.2621 1.7186 -2.3956
H -1.6147 -0.2404 1.3672
O 0.7045 -1.3239 -0.8237
O 0.6471 -1.4096 1.5748
C 1.9060 -2.0765 1.5175
H 2.0916 -2.3854 0.4986
H 1.8727 -2.9423 2.1737
H 2.7238 -1.4323 1.8426
20
Frame 24
C 0.2863 -0.7631 0.2656
C -1.7674 0.2141 -0.8513
C 0.2903 1.5457 -0.8139
C -1.1801 1.5757 -1.3158
C 0.2415 0.7602 0.4926
C -1.0631 -0.0844 0.4683
H -1.4794 -0.5568 -1.5568
H 0.8923 0.9760 -1.5130
H -1.7116 2.3837 -0.8177
H 0.5802 1.1987 1.4107
H -2.8492 0.2497 -0.7628
H 0.6993 2.5458 -0.7013
H -1.2557 1.7208 -2.3899
H -1.6216 -0.2395 1.3699
O 0.6909 -1.3259 -0.8284
O 0.6362 -1.4248 1.5560
C 1.9086 -2.0669 1.5048
H 2.0978 -2.3865 0.4902
H 1.8917 -2.9215 2.1752
H 2.7132 -1.4008 1.8175
20
Frame 25
C 0.2787 -0.7731 0.2693
C -1.7688 0.2161 -0.8485
C 0.2944 1.5383 -0.8069
C -1.1754 1.5761 -1.3103
C 0.2405 0.7514 0.4982
C -1.0679 -0.0866 0.4717
H -1.4806 -0.5549 -1.5535
H 0.8937 0.9654 -1.5057
H -1.7039 2.3857 -0.8117
H 0.5785 1.1886 1.4175
H -2.8506 0.2551 -0.7625
H 0.7083 2.5363 -0.6930
H -1.2492 1.7230 -2.3843
H -1.6286 -0.2387 1.3726
O 0.6774 -1.3278 -0.8332
O 0.6252 -1.4400 1.5373
C 1.9113 -2.0573 1.4922
H 2.1040 -2.3876 0.4819
H 1.9106 -2.9006 2.1767
H 2.7025 -1.3693 1.7923
