21
Frame 1
C 0.3000 -0.8097 0.2194
C -1.7468 0.1587 -0.9130
C 0.3129 1.5104 -0.8394
C -1.1350 1.5003 -1.4037
C 0.2082 0.7114 0.4553
C -1.0708 -0.1703 0.4138
H -1.4716 -0.6297 -1.6005
H 0.9704 0.9526 -1.4902
H -1.6918 2.3329 -0.9845
H 0.8888 0.8828 1.2685
H -2.8217 0.2120 -0.8113
H 0.6858 2.5113 -0.6788
H -1.1547 1.5752 -2.4807
H -1.6186 -0.4106 1.2995
O 0.8009 -1.2200 -0.9044
O 0.7230 -1.3876 1.5077
C 1.9463 -2.1200 1.4485
H 2.0451 -2.6024 0.4895
H 1.9109 -2.8515 2.2429
H 2.8002 -1.4677 1.6013
H -0.8814 1.3219 1.1599
21
Frame 2
C 0.2706 -0.8485 0.2174
C -1.7514 0.1684 -0.9131
C 0.3187 1.5101 -0.8241
C -1.1224 1.5022 -1.4045
C 0.1878 0.7216 0.4756
C -1.0813 -0.1735 0.4150
H -1.4961 -0.6214 -1.6060
H 0.9842 0.9506 -1.4651
H -1.6780 2.3426 -1.0010
H 0.8892 0.8252 1.2791
H -2.8252 0.2389 -0.8087
H 0.6914 2.5107 -0.6614
H -1.1282 1.5667 -2.4826
H -1.6335 -0.4083 1.2990
O 0.8000 -1.2200 -0.9013
O 0.7091 -1.4196 1.4964
C 1.9576 -2.1106 1.4359
H 2.0444 -2.6497 0.5068
H 1.9719 -2.7893 2.2757
H 2.7914 -1.4212 1.5169
H -0.9003 1.3252 1.1501
21
Frame 3
C 0.2483 -0.8836 0.2137
C -1.7560 0.1765 -0.9119
C 0.3217 1.5102 -0.8155
C -1.1151 1.5044 -1.4051
C 0.1721 0.7357 0.4916
C -1.0847 -0.1753 0.4147
H -1.5201 -0.6141 -1.6102
H 0.9909 0.9481 -1.4499
H -1.6683 2.3506 -1.0115
H 0.8919 0.7810 1.2809
H -2.8282 0.2610 -0.8006
H 0.6959 2.5107 -0.6554
H -1.1134 1.5617 -2.4837
H -1.6369 -0.4081 1.2990
O 0.8014 -1.2217 -0.8985
O 0.6997 -1.4447 1.4853
C 1.9668 -2.1045 1.4294
H 2.0588 -2.6706 0.5169
H 2.0062 -2.7551 2.2902
H 2.7819 -1.3906 1.4793
H -0.9128 1.3284 1.1414
21
Frame 4
C 0.2333 -0.9124 0.2102
C -1.7586 0.1820 -0.9098
C 0.3221 1.5147 -0.8086
C -1.1106 1.5055 -1.4068
C 0.1581 0.7558 0.5069
C -1.0826 -0.1758 0.4142
H -1.5398 -0.6097 -1.6121
H 0.9962 0.9509 -1.4360
H -1.6639 2.3558 -1.0237
H 0.8931 0.7516 1.2817
H -2.8292 0.2768 -0.7906
H 0.6949 2.5165 -0.6531
H -1.1018 1.5549 -2.4860
H -1.6334 -0.4096 1.2989
O 0.8065 -1.2211 -0.8947
O 0.6957 -1.4624 1.4755
C 1.9734 -2.1047 1.4242
H 2.0675 -2.6930 0.5260
H 2.0275 -2.7318 2.3008
H 2.7766 -1.3768 1.4485
H -0.9249 1.3327 1.1343
21
Frame 5
C 0.2232 -0.9371 0.2069
C -1.7590 0.1861 -0.9080
C 0.3206 1.5235 -0.8008
C -1.1070 1.5062 -1.4095
C 0.1446 0.7798 0.5228
C -1.0768 -0.1754 0.4135
H -1.5551 -0.6064 -1.6136
H 1.0023 0.9592 -1.4195
H -1.6640 2.3590 -1.0389
H 0.8906 0.7352 1.2843
H -2.8280 0.2886 -0.7808
H 0.6891 2.5278 -0.6508
H -1.0894 1.5463 -2.4891
H -1.6268 -0.4137 1.2974
O 0.8130 -1.2207 -0.8904
O 0.6938 -1.4769 1.4663
C 1.9778 -2.1096 1.4179
H 2.0659 -2.7285 0.5396
H 2.0478 -2.7053 2.3148
H 2.7736 -1.3738 1.4061
H -0.9363 1.3356 1.1318
21
Frame 6
C 0.2209 -0.9547 0.2072
C -1.7530 0.1854 -0.9095
C 0.3159 1.5399 -0.7905
C -1.1059 1.5083 -1.4111
C 0.1293 0.8106 0.5406
C -1.0668 -0.1740 0.4121
H -1.5520 -0.6058 -1.6173
H 1.0076 0.9775 -1.3998
H -1.6721 2.3586 -1.0493
H 0.8816 0.7370 1.2926
H -2.8220 0.2857 -0.7798
H 0.6761 2.5483 -0.6465
H -1.0795 1.5439 -2.4908
H -1.6189 -0.4176 1.2933
O 0.8265 -1.2152 -0.8815
O 0.6994 -1.4821 1.4616
C 1.9795 -2.1255 1.4094
H 2.0343 -2.8034 0.5727
H 2.0762 -2.6600 2.3414
H 2.7771 -1.3983 1.3193
H -0.9540 1.3415 1.1259
21
Frame 7
C 0.2180 -0.9736 0.2057
C -1.7477 0.1849 -0.9085
C 0.3110 1.5547 -0.7851
C -1.1067 1.5103 -1.4129
C 0.1176 0.8407 0.5543
C -1.0545 -0.1707 0.4120
H -1.5492 -0.6056 -1.6176
H 1.0094 0.9915 -1.3864
H -1.6804 2.3583 -1.0579
H 0.8773 0.7429 1.2955
H -2.8165 0.2824 -0.7749
H 0.6659 2.5664 -0.6502
H -1.0753 1.5417 -2.4927
H -1.6078 -0.4188 1.2915
O 0.8310 -1.2184 -0.8769
O 0.7018 -1.4909 1.4550
C 1.9809 -2.1392 1.4049
H 2.0224 -2.8447 0.5903
H 2.0889 -2.6427 2.3526
H 2.7773 -1.4169 1.2785
H -0.9632 1.3477 1.1228
21
Frame 8
C 0.2166 -0.9907 0.2038
C -1.7418 0.1842 -0.9070
C 0.3063 1.5703 -0.7776
C -1.1059 1.5108 -1.4155
C 0.1041 0.8719 0.5696
C -1.0413 -0.1677 0.4123
H -1.5474 -0.6068 -1.6167
H 1.0127 1.0059 -1.3685
H -1.6879 2.3570 -1.0704
H 0.8672 0.7580 1.3052
H -2.8101 0.2804 -0.7686
H 0.6548 2.5855 -0.6526
H -1.0669 1.5358 -2.4952
H -1.5963 -0.4202 1.2898
O 0.8328 -1.2232 -0.8741
O 0.7057 -1.4987 1.4476
C 1.9827 -2.1541 1.3981
H 2.0068 -2.8895 0.6094
H 2.1050 -2.6235 2.3614
H 2.7785 -1.4400 1.2311
H -0.9758 1.3546 1.1177
21
Frame 9
C 0.2172 -1.0056 0.2026
C -1.7346 0.1824 -0.9044
C 0.3008 1.5875 -0.7702
C -1.1051 1.5102 -1.4188
C 0.0898 0.9053 0.5849
C -1.0263 -0.1636 0.4139
H -1.5427 -0.6095 -1.6136
H 1.0166 1.0225 -1.3496
H -1.6969 2.3543 -1.0857
H 0.8551 0.7815 1.3171
H -2.8026 0.2764 -0.7619
H 0.6416 2.6066 -0.6551
H -1.0575 1.5268 -2.4985
H -1.5836 -0.4206 1.2893
O 0.8324 -1.2307 -0.8718
O 0.7123 -1.5033 1.4409
C 1.9842 -2.1712 1.3905
H 1.9887 -2.9317 0.6252
H 2.1181 -2.6110 2.3659
H 2.7816 -1.4690 1.1865
H -0.9888 1.3625 1.1127
21
Frame 10
C 0.2183 -1.0199 0.2010
C -1.7264 0.1805 -0.9018
C 0.2952 1.6056 -0.7607
C -1.1028 1.5091 -1.4224
C 0.0739 0.9387 0.6013
C -1.0109 -0.1597 0.4157
H -1.5375 -0.6130 -1.6101
H 1.0213 1.0401 -1.3270
H -1.7053 2.3512 -1.1036
H 0.8393 0.8106 1.3333
H -2.7940 0.2729 -0.7550
H 0.6274 2.6289 -0.6559
H -1.0443 1.5164 -2.5017
H -1.5709 -0.4215 1.2884
O 0.8283 -1.2424 -0.8711
O 0.7197 -1.5069 1.4338
C 1.9858 -2.1885 1.3812
H 1.9670 -2.9769 0.6449
H 2.1360 -2.5934 2.3689
H 2.7835 -1.5018 1.1337
H -1.0037 1.3701 1.1073
21
Frame 11
C 0.2208 -1.0334 0.1987
C -1.7179 0.1784 -0.8982
C 0.2888 1.6247 -0.7526
C -1.1013 1.5077 -1.4265
C 0.0583 0.9729 0.6161
C -0.9935 -0.1552 0.4177
H -1.5326 -0.6169 -1.6053
H 1.0254 1.0583 -1.3052
H -1.7146 2.3472 -1.1222
H 0.8234 0.8459 1.3496
H -2.7848 0.2693 -0.7454
H 0.6125 2.6519 -0.6589
H -1.0326 1.5050 -2.5053
H -1.5554 -0.4216 1.2884
O 0.8218 -1.2577 -0.8724
O 0.7276 -1.5111 1.4257
C 1.9872 -2.2073 1.3729
H 1.9496 -3.0151 0.6587
H 2.1479 -2.5865 2.3689
H 2.7869 -1.5351 1.0943
H -1.0175 1.3784 1.1009
21
Frame 12
C 0.2255 -1.0446 0.1966
C -1.7083 0.1759 -0.8942
C 0.2818 1.6455 -0.7422
C -1.0981 1.5051 -1.4313
C 0.0399 1.0085 0.6325
C -0.9750 -0.1506 0.4201
H -1.5278 -0.6220 -1.5993
H 1.0308 1.0801 -1.2794
H -1.7238 2.3420 -1.1453
H 0.8031 0.8876 1.3700
H -2.7744 0.2663 -0.7352
H 0.5946 2.6772 -0.6595
H -1.0159 1.4904 -2.5091
H -1.5393 -0.4226 1.2881
O 0.8150 -1.2745 -0.8742
O 0.7388 -1.5118 1.4176
C 1.9888 -2.2277 1.3625
H 1.9237 -3.0595 0.6779
H 2.1652 -2.5749 2.3673
H 2.7904 -1.5768 1.0433
H -1.0350 1.3864 1.0934
21
Frame 13
C 0.2309 -1.0550 0.1949
C -1.6985 0.1734 -0.8888
C 0.2743 1.6670 -0.7318
C -1.0940 1.5011 -1.4370
C 0.0204 1.0447 0.6484
C -0.9554 -0.1452 0.4236
H -1.5247 -0.6283 -1.5911
H 1.0368 1.1032 -1.2519
H -1.7322 2.3355 -1.1725
H 0.7804 0.9346 1.3921
H -2.7634 0.2650 -0.7220
H 0.5752 2.7031 -0.6604
H -0.9965 1.4717 -2.5133
H -1.5218 -0.4225 1.2892
O 0.8051 -1.2942 -0.8766
O 0.7511 -1.5124 1.4094
C 1.9905 -2.2488 1.3512
H 1.9001 -3.0977 0.6907
H 2.1798 -2.5717 2.3616
H 2.7946 -1.6185 0.9995
H -1.0528 1.3949 1.0850
21
Frame 14
C 0.2367 -1.0651 0.1931
C -1.6884 0.1711 -0.8824
C 0.2662 1.6895 -0.7213
C -1.0891 1.4961 -1.4435
C 0.0004 1.0810 0.6637
C -0.9346 -0.1393 0.4275
H -1.5230 -0.6355 -1.5811
H 1.0434 1.1286 -1.2235
H -1.7402 2.3279 -1.2031
H 0.7564 0.9861 1.4145
H -2.7517 0.2653 -0.7064
H 0.5538 2.7302 -0.6612
H -0.9750 1.4505 -2.5177
H -1.5027 -0.4217 1.2910
O 0.7915 -1.3187 -0.8797
O 0.7644 -1.5130 1.4007
C 1.9924 -2.2704 1.3396
H 1.8781 -3.1311 0.6982
H 2.1920 -2.5753 2.3534
H 2.7997 -1.6596 0.9625
H -1.0703 1.4035 1.0759
21
Frame 15
C 0.2437 -1.0748 0.1913
C -1.6774 0.1685 -0.8754
C 0.2567 1.7139 -0.7118
C -1.0848 1.4912 -1.4502
C -0.0197 1.1177 0.6773
C -0.9118 -0.1325 0.4314
H -1.5202 -0.6427 -1.5703
H 1.0491 1.1576 -1.1960
H -1.7490 2.3190 -1.2344
H 0.7321 1.0412 1.4354
H -2.7388 0.2648 -0.6895
H 0.5301 2.7590 -0.6626
H -0.9536 1.4292 -2.5212
H -1.4814 -0.4205 1.2930
O 0.7765 -1.3465 -0.8827
O 0.7786 -1.5136 1.3918
C 1.9938 -2.2937 1.3285
H 1.8565 -3.1626 0.7034
H 2.2013 -2.5845 2.3446
H 2.8049 -1.7025 0.9307
H -1.0866 1.4118 1.0666
21
Frame 16
C 0.2532 -1.0825 0.1898
C -1.6653 0.1660 -0.8673
C 0.2449 1.7425 -0.6999
C -1.0782 1.4842 -1.4586
C -0.0418 1.1555 0.6920
C -0.8871 -0.1250 0.4359
H -1.5194 -0.6515 -1.5570
H 1.0569 1.1965 -1.1642
H -1.7585 2.3072 -1.2760
H 0.7052 1.1000 1.4576
H -2.7244 0.2668 -0.6698
H 0.4978 2.7933 -0.6600
H -0.9237 1.4005 -2.5253
H -1.4580 -0.4202 1.2951
O 0.7613 -1.3744 -0.8852
O 0.7962 -1.5119 1.3827
C 1.9945 -2.3199 1.3156
H 1.8265 -3.2000 0.7139
H 2.2148 -2.5911 2.3341
H 2.8094 -1.7554 0.8883
H -1.1044 1.4192 1.0582
21
Frame 17
C 0.2640 -1.0905 0.1884
C -1.6518 0.1633 -0.8589
C 0.2315 1.7737 -0.6896
C -1.0722 1.4777 -1.4668
C -0.0632 1.1931 0.7043
C -0.8599 -0.1168 0.4401
H -1.5167 -0.6601 -1.5433
H 1.0632 1.2419 -1.1351
H -1.7685 2.2933 -1.3170
H 0.6780 1.1627 1.4774
H -2.7081 0.2680 -0.6491
H 0.4612 2.8301 -0.6581
H -0.8944 1.3735 -2.5279
H -1.4317 -0.4195 1.2971
O 0.7436 -1.4073 -0.8871
O 0.8150 -1.5110 1.3736
C 1.9944 -2.3482 1.3039
H 1.7959 -3.2356 0.7232
H 2.2252 -2.6034 2.3240
H 2.8145 -1.8108 0.8516
H -1.1201 1.4260 1.0492
21
Frame 18
C 0.2761 -1.0982 0.1872
C -1.6372 0.1610 -0.8497
C 0.2156 1.8086 -0.6776
C -1.0637 1.4696 -1.4766
C -0.0858 1.2303 0.7167
C -0.8307 -0.1081 0.4442
H -1.5163 -0.6696 -1.5278
H 1.0713 1.2976 -1.1031
H -1.7777 2.2765 -1.3665
H 0.6488 1.2270 1.4974
H -2.6900 0.2723 -0.6258
H 0.4160 2.8710 -0.6521
H -0.8576 1.3415 -2.5300
H -1.4033 -0.4196 1.2989
O 0.7237 -1.4435 -0.8879
O 0.8368 -1.5086 1.3640
C 1.9940 -2.3782 1.2909
H 1.7592 -3.2748 0.7374
H 2.2401 -2.6132 2.3125
H 2.8166 -1.8730 0.8072
H -1.1360 1.4314 1.0406
21
Frame 19
C 0.2877 -1.1062 0.1849
C -1.6232 0.1600 -0.8391
C 0.1972 1.8472 -0.6617
C -1.0489 1.4576 -1.4888
C -0.1108 1.2660 0.7310
C -0.8010 -0.0995 0.4486
H -1.5246 -0.6801 -1.5086
H 1.0825 1.3678 -1.0639
H -1.7808 2.2541 -1.4330
H 0.6167 1.2893 1.5189
H -2.6707 0.2867 -0.5980
H 0.3575 2.9167 -0.6393
H -0.8035 1.2974 -2.5296
H -1.3742 -0.4220 1.3004
O 0.6968 -1.4854 -0.8887
O 0.8643 -1.5010 1.3520
C 1.9941 -2.4077 1.2751
H 1.7152 -3.3142 0.7594
H 2.2636 -2.6166 2.2965
H 2.8154 -1.9440 0.7495
H -1.1532 1.4340 1.0345
21
Frame 20
C 0.2778 -1.1070 0.1797
C -1.6328 0.1732 -0.8237
C 0.1776 1.8699 -0.6409
C -1.0045 1.4178 -1.5016
C -0.1207 1.2694 0.7449
C -0.8046 -0.0981 0.4575
H -1.5923 -0.6744 -1.4758
H 1.0903 1.4621 -1.0197
H -1.7140 2.1928 -1.5562
H 0.6110 1.2921 1.5289
H -2.6581 0.3610 -0.5710
H 0.2651 2.9353 -0.6127
H -0.6949 1.1863 -2.4774
H -1.3744 -0.4284 1.3090
O 0.6652 -1.4950 -0.8965
O 0.8724 -1.4967 1.3373
C 1.9967 -2.4088 1.2478
H 1.7041 -3.3211 0.7537
H 2.2895 -2.6034 2.2636
H 2.8051 -1.9566 0.6971
H -1.1584 1.4297 1.0561
21
Frame 21
C 0.2679 -1.1077 0.1746
C -1.6425 0.1864 -0.8083
C 0.1580 1.8927 -0.6202
C -0.9602 1.3779 -1.5144
C -0.1306 1.2728 0.7587
C -0.8082 -0.0968 0.4665
H -1.6599 -0.6687 -1.4431
H 1.0980 1.5563 -0.9755
H -1.6472 2.1314 -1.6794
H 0.6053 1.2949 1.5388
H -2.6454 0.4352 -0.5440
H 0.1728 2.9540 -0.5861
H -0.5863 1.0752 -2.4251
H -1.3747 -0.4348 1.3176
O 0.6336 -1.5046 -0.9044
O 0.8806 -1.4923 1.3226
C 1.9994 -2.4098 1.2205
H 1.6929 -3.3281 0.7481
H 2.3154 -2.5902 2.2308
H 2.7948 -1.9691 0.6446
H -1.1637 1.4255 1.0777
21
Frame 22
C 0.2580 -1.1085 0.1694
C -1.6521 0.1996 -0.7929
C 0.1384 1.9154 -0.5994
C -0.9158 1.3381 -1.5273
C -0.1405 1.2761 0.7726
C -0.8119 -0.0954 0.4754
H -1.7276 -0.6629 -1.4103
H 1.1058 1.6506 -0.9313
H -1.5805 2.0701 -1.8026
H 0.5996 1.2976 1.5488
H -2.6328 0.5095 -0.5170
H 0.0804 2.9727 -0.5596
H -0.4777 0.9641 -2.3729
H -1.3749 -0.4411 1.3262
O 0.6020 -1.5142 -0.9122
O 0.8887 -1.4880 1.3079
C 2.0020 -2.4109 1.1931
H 1.6818 -3.3350 0.7424
H 2.3413 -2.5770 2.1979
H 2.7845 -1.9817 0.5922
H -1.1689 1.4212 1.0994
21
Frame 23
C 0.2482 -1.1092 0.1643
C -1.6617 0.2128 -0.7775
C 0.1187 1.9381 -0.5786
C -0.8714 1.2982 -1.5401
C -0.1504 1.2795 0.7865
C -0.8155 -0.0941 0.4843
H -1.7953 -0.6572 -1.3775
H 1.1136 1.7449 -0.8870
H -1.5137 2.0088 -1.9259
H 0.5939 1.3004 1.5587
H -2.6201 0.5837 -0.4899
H -0.0119 2.9913 -0.5330
H -0.3691 0.8530 -2.3207
H -1.3752 -0.4475 1.3348
O 0.5704 -1.5238 -0.9200
O 0.8968 -1.4837 1.2932
C 2.0046 -2.4120 1.1658
H 1.6707 -3.3419 0.7367
H 2.3673 -2.5639 2.1651
H 2.7742 -1.9943 0.5398
H -1.1741 1.4170 1.1210
21
Frame 24
C 0.2383 -1.1100 0.1591
C -1.6714 0.2260 -0.7621
C 0.0991 1.9609 -0.5579
C -0.8271 1.2584 -1.5529
C -0.1603 1.2829 0.8003
C -0.8191 -0.0927 0.4933
H -1.8629 -0.6515 -1.3448
H 1.1213 1.8391 -0.8428
H -1.4469 1.9474 -2.0491
H 0.5882 1.3032 1.5687
H -2.6075 0.6579 -0.4629
H -0.1043 3.0100 -0.5064
H -0.2605 0.7419 -2.2684
H -1.3754 -0.4539 1.3434
O 0.5388 -1.5334 -0.9279
O 0.9050 -1.4793 1.2785
C 2.0073 -2.4130 1.1385
H 1.6595 -3.3489 0.7311
H 2.3932 -2.5507 2.1322
H 2.7639 -2.0068 0.4873
H -1.1794 1.4127 1.1426
21
Frame 25
C 0.2284 -1.1107 0.1540
C -1.6810 0.2392 -0.7467
C 0.0795 1.9836 -0.5371
C -0.7827 1.2185 -1.5657
C -0.1702 1.2863 0.8142
C -0.8227 -0.0914 0.5022
H -1.9306 -0.6458 -1.3120
H 1.1291 1.9334 -0.7986
H -1.3801 1.8861 -2.1723
H 0.5825 1.3060 1.5786
H -2.5948 0.7322 -0.4359
H -0.1966 3.0286 -0.4798
H -0.1519 0.6308 -2.2162
H -1.3757 -0.4603 1.3520
O 0.5072 -1.5430 -0.9357
O 0.9131 -1.4750 1.2638
C 2.0099 -2.4141 1.1112
H 1.6484 -3.3558 0.7254
H 2.4191 -2.5375 2.0994
H 2.7536 -2.0194 0.4349
H -1.1846 1.4085 1.1642
