13
Frame 1
N 2.7505 -1.4581 -0.7752
N 3.8112 -1.0581 -0.7940
H 0.9131 -1.8468 0.1202
C 1.5294 -1.9037 -0.7763
H 1.1349 -2.4399 -1.6341
C -1.8694 1.8172 0.7350
C -0.8229 0.7585 0.5783
O 0.0850 0.4631 1.3385
O -0.8971 0.0265 -0.5545
H -0.1893 -0.6275 -0.5756
H -2.0496 2.3508 -0.2074
H -1.5770 2.5531 1.4947
H -2.8189 1.3650 1.0505
13
Frame 2
N 2.7305 -1.4442 -0.7685
N 3.7848 -1.0305 -0.7903
H 0.9105 -1.8772 0.1355
C 1.5143 -1.9049 -0.7671
H 1.1240 -2.4409 -1.6272
C -1.8625 1.8185 0.7346
C -0.8208 0.7582 0.5649
O 0.0945 0.4595 1.3141
O -0.9001 0.0261 -0.5629
H -0.1597 -0.6413 -0.5700
H -2.0358 2.3656 -0.1993
H -1.5696 2.5410 1.5047
H -2.8152 1.3682 1.0401
13
Frame 3
N 2.7105 -1.4303 -0.7619
N 3.7585 -1.0029 -0.7866
H 0.9078 -1.9077 0.1508
C 1.4992 -1.9061 -0.7579
H 1.1131 -2.4419 -1.6203
C -1.8556 1.8199 0.7342
C -0.8187 0.7579 0.5515
O 0.1040 0.4558 1.2897
O -0.9032 0.0256 -0.5712
H -0.1300 -0.6551 -0.5644
H -2.0220 2.3803 -0.1912
H -1.5622 2.5288 1.5147
H -2.8116 1.3714 1.0297
13
Frame 4
N 2.6905 -1.4164 -0.7552
N 3.7321 -0.9753 -0.7829
H 0.9052 -1.9381 0.1661
C 1.4841 -1.9074 -0.7487
H 1.1023 -2.4429 -1.6135
C -1.8488 1.8212 0.7338
C -0.8166 0.7576 0.5381
O 0.1136 0.4522 1.2653
O -0.9062 0.0252 -0.5796
H -0.1004 -0.6689 -0.5588
H -2.0082 2.3951 -0.1831
H -1.5548 2.5167 1.5247
H -2.8079 1.3745 1.0193
13
Frame 5
N 2.6605 -1.3948 -0.7452
N 3.6928 -0.9362 -0.7764
H 0.9066 -1.9864 0.1867
C 1.4606 -1.9058 -0.7356
H 1.0818 -2.4338 -1.6067
C -1.8329 1.8242 0.7326
C -0.8133 0.7559 0.5110
O 0.1462 0.4574 1.2019
O -0.9304 0.0016 -0.5814
H -0.0696 -0.6911 -0.5335
H -1.9690 2.4292 -0.1648
H -1.5405 2.4870 1.5485
H -2.8022 1.3856 0.9889
13
Frame 6
N 2.6305 -1.3731 -0.7352
N 3.6536 -0.8970 -0.7698
H 0.9079 -2.0346 0.2073
C 1.4372 -1.9042 -0.7225
H 1.0613 -2.4247 -1.5999
C -1.8170 1.8273 0.7314
C -0.8099 0.7542 0.4839
O 0.1788 0.4626 1.1385
O -0.9546 -0.0219 -0.5833
H -0.0388 -0.7134 -0.5081
H -1.9298 2.4634 -0.1464
H -1.5263 2.4574 1.5723
H -2.7964 1.3967 0.9586
13
Frame 7
N 2.6005 -1.3514 -0.7252
N 3.6143 -0.8579 -0.7632
H 0.9093 -2.0829 0.2279
C 1.4138 -1.9026 -0.7095
H 1.0408 -2.4156 -1.5932
C -1.8011 1.8303 0.7302
C -0.8066 0.7526 0.4568
O 0.2114 0.4678 1.0751
O -0.9788 -0.0455 -0.5851
H -0.0080 -0.7357 -0.4828
H -1.8906 2.4976 -0.1281
H -1.5121 2.4277 1.5961
H -2.7907 1.4077 0.9282
13
Frame 8
N 2.5705 -1.3298 -0.7152
N 3.5751 -0.8188 -0.7567
H 0.9107 -2.1311 0.2485
C 1.3904 -1.9010 -0.6964
H 1.0204 -2.4065 -1.5864
C -1.7852 1.8333 0.7290
C -0.8033 0.7509 0.4297
O 0.2440 0.4730 1.0116
O -1.0031 -0.0691 -0.5870
H 0.0228 -0.7579 -0.4575
H -1.8514 2.5317 -0.1098
H -1.4978 2.3981 1.6199
H -2.7850 1.4188 0.8979
13
Frame 9
N 2.5405 -1.3081 -0.7052
N 3.5358 -0.7796 -0.7501
H 0.9120 -2.1794 0.2691
C 1.3670 -1.8994 -0.6833
H 0.9999 -2.3975 -1.5797
C -1.7693 1.8363 0.7278
C -0.7999 0.7492 0.4026
O 0.2766 0.4782 0.9482
O -1.0273 -0.0926 -0.5888
H 0.0536 -0.7802 -0.4322
H -1.8122 2.5659 -0.0915
H -1.4836 2.3684 1.6437
H -2.7792 1.4299 0.8675
13
Frame 10
N 2.5205 -1.2981 -0.6952
N 3.5122 -0.7649 -0.7378
H 0.9235 -2.2320 0.2742
C 1.3476 -1.8971 -0.6746
H 0.9737 -2.3711 -1.5816
C -1.7622 1.8350 0.7235
C -0.8015 0.7443 0.3847
O 0.3162 0.5170 0.8707
O -1.0727 -0.1484 -0.5433
H 0.0641 -0.8053 -0.4038
H -1.7617 2.5956 -0.0680
H -1.4947 2.3267 1.6671
H -2.7848 1.4473 0.8151
13
Frame 11
N 2.5105 -1.2881 -0.6952
N 3.4995 -0.7528 -0.7396
H 0.9484 -2.2792 0.2743
C 1.3360 -1.8913 -0.6698
H 0.9507 -2.3427 -1.5841
C -1.7536 1.8315 0.7187
C -0.8007 0.7376 0.3673
O 0.3410 0.5354 0.8151
O -1.0958 -0.1820 -0.5196
H 0.0862 -0.8206 -0.3870
H -1.7306 2.6103 -0.0550
H -1.4929 2.2983 1.6767
H -2.7827 1.4568 0.7867
13
Frame 12
N 2.5055 -1.2831 -0.6902
N 3.4944 -0.7488 -0.7298
H 0.9598 -2.3104 0.2672
C 1.3294 -1.8875 -0.6681
H 0.9374 -2.3177 -1.5897
C -1.7511 1.8302 0.7160
C -0.8007 0.7365 0.3565
O 0.3642 0.5680 0.7556
O -1.1185 -0.2171 -0.4791
H 0.0954 -0.8302 -0.3743
H -1.7099 2.6236 -0.0412
H -1.4991 2.2760 1.6859
H -2.7844 1.4648 0.7631
13
Frame 13
N 2.5005 -1.2781 -0.6852
N 3.4893 -0.7448 -0.7201
H 0.9712 -2.3416 0.2600
C 1.3227 -1.8837 -0.6664
H 0.9241 -2.2927 -1.5954
C -1.7486 1.8289 0.7134
C -0.8007 0.7354 0.3458
O 0.3873 0.6006 0.6962
O -1.1413 -0.2522 -0.4386
H 0.1045 -0.8397 -0.3615
H -1.6891 2.6370 -0.0275
H -1.5052 2.2536 1.6952
H -2.7861 1.4727 0.7395
13
Frame 14
N 2.4955 -1.2731 -0.6802
N 3.4849 -0.7417 -0.7102
H 0.9801 -2.3679 0.2507
C 1.3152 -1.8783 -0.6649
H 0.9116 -2.2683 -1.5998
C -1.7475 1.8283 0.7113
C -0.8028 0.7344 0.3357
O 0.4015 0.6279 0.6381
O -1.1590 -0.2806 -0.3991
H 0.1142 -0.8456 -0.3524
H -1.6754 2.6476 -0.0155
H -1.5090 2.2356 1.7015
H -2.7877 1.4799 0.7239
13
Frame 15
N 2.4905 -1.2681 -0.6752
N 3.4804 -0.7386 -0.7003
H 0.9891 -2.3943 0.2414
C 1.3078 -1.8730 -0.6633
H 0.8990 -2.2439 -1.6042
C -1.7465 1.8277 0.7093
C -0.8048 0.7335 0.3256
O 0.4157 0.6553 0.5801
O -1.1768 -0.3090 -0.3596
H 0.1238 -0.8516 -0.3433
H -1.6618 2.6581 -0.0035
H -1.5128 2.2176 1.7078
H -2.7893 1.4871 0.7083
13
Frame 16
N 2.4872 -1.2648 -0.6719
N 3.4777 -0.7375 -0.6895
H 1.0014 -2.4272 0.2213
C 1.3024 -1.8693 -0.6650
H 0.8841 -2.2110 -1.6119
C -1.7432 1.8290 0.7078
C -0.8048 0.7330 0.3205
O 0.4251 0.6797 0.5226
O -1.1871 -0.3355 -0.3072
H 0.1306 -0.8584 -0.3295
H -1.6513 2.6653 0.0031
H -1.5110 2.2088 1.7104
H -2.7878 1.4941 0.7007
13
Frame 17
N 2.4838 -1.2614 -0.6685
N 3.4750 -0.7363 -0.6788
H 1.0137 -2.4601 0.2013
C 1.2970 -1.8656 -0.6667
H 0.8693 -2.1780 -1.6197
C -1.7399 1.8303 0.7063
C -0.8049 0.7324 0.3154
O 0.4345 0.7041 0.4650
O -1.1974 -0.3621 -0.2549
H 0.1374 -0.8653 -0.3157
H -1.6409 2.6726 0.0096
H -1.5092 2.2000 1.7131
H -2.7863 1.5012 0.6931
13
Frame 18
N 2.4805 -1.2581 -0.6652
N 3.4724 -0.7351 -0.6680
H 1.0261 -2.4930 0.1812
C 1.2916 -1.8619 -0.6684
H 0.8545 -2.1451 -1.6275
C -1.7366 1.8316 0.7049
C -0.8049 0.7319 0.3104
O 0.4440 0.7285 0.4074
O -1.2076 -0.3887 -0.2025
H 0.1442 -0.8721 -0.3020
H -1.6304 2.6799 0.0162
H -1.5074 2.1912 1.7158
H -2.7848 1.5082 0.6854
13
Frame 19
N 2.4772 -1.2548 -0.6585
N 3.4697 -0.7344 -0.6507
H 1.0299 -2.5156 0.1596
C 1.2856 -1.8569 -0.6706
H 0.8474 -2.1180 -1.6350
C -1.7331 1.8326 0.7084
C -0.8057 0.7313 0.3076
O 0.4437 0.7496 0.3401
O -1.2099 -0.4107 -0.1395
H 0.1517 -0.8757 -0.2919
H -1.6262 2.6847 0.0250
H -1.4998 2.1850 1.7209
H -2.7824 1.5125 0.6909
13
Frame 20
N 2.4738 -1.2514 -0.6519
N 3.4671 -0.7337 -0.6335
H 1.0338 -2.5382 0.1380
C 1.2795 -1.8518 -0.6728
H 0.8403 -2.0909 -1.6426
C -1.7296 1.8335 0.7119
C -0.8065 0.7306 0.3048
O 0.4435 0.7707 0.2728
O -1.2121 -0.4328 -0.0764
H 0.1592 -0.8792 -0.2818
H -1.6220 2.6896 0.0337
H -1.4921 2.1788 1.7260
H -2.7800 1.5169 0.6963
13
Frame 21
N 2.4705 -1.2481 -0.6452
N 3.4645 -0.7329 -0.6163
H 1.0376 -2.5608 0.1163
C 1.2735 -1.8468 -0.6751
H 0.8332 -2.0638 -1.6502
C -1.7262 1.8344 0.7155
C -0.8073 0.7300 0.3020
O 0.4432 0.7918 0.2055
O -1.2143 -0.4548 -0.0134
H 0.1667 -0.8828 -0.2717
H -1.6178 2.6945 0.0425
H -1.4844 2.1726 1.7310
H -2.7775 1.5212 0.7017
13
Frame 22
N 2.4605 -1.2381 -0.6352
N 3.4503 -0.7182 -0.6017
H 1.0455 -2.5767 0.1120
C 1.2605 -1.8431 -0.6681
H 0.8406 -2.0758 -1.6493
C -1.7144 1.8321 0.7134
C -0.8090 0.7178 0.2935
O 0.4406 0.7845 0.1610
O -1.2209 -0.4693 0.0125
H 0.1867 -0.8952 -0.2756
H -1.5866 2.7005 0.0549
H -1.4768 2.1510 1.7362
H -2.7702 1.5357 0.6860
13
Frame 23
N 2.4505 -1.2181 -0.6352
N 3.4351 -0.6910 -0.6043
H 1.0596 -2.5816 0.1099
C 1.2488 -1.8329 -0.6634
H 0.8456 -2.0855 -1.6478
C -1.7028 1.8352 0.7111
C -0.8100 0.7107 0.2887
O 0.4409 0.7765 0.1431
O -1.2282 -0.4732 0.0227
H 0.2068 -0.9032 -0.2792
H -1.5530 2.7107 0.0669
H -1.4731 2.1354 1.7413
H -2.7627 1.5560 0.6673
13
Frame 24
N 2.4305 -1.2081 -0.6352
N 3.4106 -0.6751 -0.6083
H 1.0613 -2.5921 0.1109
C 1.2266 -1.8318 -0.6576
H 0.8390 -2.1017 -1.6440
C -1.6946 1.8355 0.7090
C -0.8166 0.6986 0.2858
O 0.4353 0.7608 0.1264
O -1.2439 -0.4816 0.0370
H 0.2165 -0.9210 -0.2806
H -1.5189 2.7168 0.0799
H -1.4758 2.1172 1.7467
H -2.7587 1.5770 0.6452
13
Frame 25
N 2.4205 -1.1881 -0.6352
N 3.3954 -0.6475 -0.6139
H 1.0738 -2.5930 0.1124
C 1.2156 -1.8231 -0.6519
H 0.8448 -2.1112 -1.6401
C -1.6838 1.8385 0.7063
C -0.8164 0.6915 0.2846
O 0.4368 0.7512 0.1190
O -1.2512 -0.4844 0.0467
H 0.2354 -0.9331 -0.2828
H -1.4823 2.7258 0.0935
H -1.4803 2.1021 1.7519
H -2.7505 1.5983 0.6194
13
Frame 26
N 2.4105 -1.1781 -0.6352
N 3.3809 -0.6314 -0.6193
H 1.0846 -2.6000 0.1167
C 1.2041 -1.8234 -0.6455
H 0.8485 -2.1296 -1.6347
C -1.6712 1.8360 0.7023
C -0.8146 0.6787 0.2833
O 0.4405 0.7344 0.1147
O -1.2581 -0.4925 0.0548
H 0.2542 -0.9534 -0.2852
H -1.4437 2.7281 0.1058
H -1.4841 2.0821 1.7551
H -2.7399 1.6146 0.5920
13
Frame 27
N 2.3905 -1.1581 -0.6352
N 3.3540 -0.6017 -0.6246
H 1.0915 -2.6013 0.1218
C 1.1856 -1.8187 -0.6390
H 0.8466 -2.1444 -1.6285
C -1.6624 1.8418 0.7007
C -0.8182 0.6737 0.2829
O 0.4377 0.7247 0.1070
O -1.2720 -0.4929 0.0657
H 0.2635 -0.9709 -0.2887
H -1.4051 2.7392 0.1249
H -1.4950 2.0671 1.7615
H -2.7322 1.6424 0.5631
13
Frame 28
N 2.3705 -1.1381 -0.6352
N 3.3262 -0.5704 -0.6331
H 1.1035 -2.6033 0.1321
C 1.1682 -1.8169 -0.6287
H 0.8451 -2.1629 -1.6174
C -1.6564 1.8438 0.6999
C -0.8235 0.6661 0.2820
O 0.4333 0.7123 0.1043
O -1.2882 -0.4942 0.0688
H 0.2717 -0.9931 -0.2900
H -1.3685 2.7472 0.1483
H -1.5125 2.0460 1.7687
H -2.7258 1.6673 0.5316
13
Frame 29
N 2.3505 -1.1281 -0.6352
N 3.2997 -0.5512 -0.6424
H 1.1123 -2.6111 0.1443
C 1.1506 -1.8230 -0.6175
H 0.8410 -2.1884 -1.6044
C -1.6460 1.8438 0.6972
C -0.8248 0.6560 0.2811
O 0.4342 0.6938 0.1092
O -1.3026 -0.4965 0.0668
H 0.2811 -1.0222 -0.2894
H -1.3253 2.7513 0.1714
H -1.5285 2.0231 1.7733
H -2.7137 1.6917 0.4967
13
Frame 30
N 2.3305 -1.1081 -0.6352
N 3.2709 -0.5190 -0.6519
H 1.1266 -2.6121 0.1567
C 1.1354 -1.8234 -0.6066
H 0.8426 -2.2087 -1.5919
C -1.6385 1.8457 0.6959
C -0.8280 0.6487 0.2813
O 0.4317 0.6813 0.1076
O -1.3168 -0.4984 0.0727
H 0.2888 -1.0495 -0.2902
H -1.2845 2.7577 0.2002
H -1.5523 2.0003 1.7786
H -2.7019 1.7190 0.4590
13
Frame 31
N 2.3105 -1.0881 -0.6352
N 3.2433 -0.4887 -0.6597
H 1.1397 -2.6127 0.1657
C 1.1200 -1.8224 -0.5969
H 0.8420 -2.2239 -1.5809
C -1.6276 1.8527 0.6937
C -0.8281 0.6459 0.2817
O 0.4318 0.6723 0.1049
O -1.3289 -0.4957 0.0811
H 0.2968 -1.0758 -0.2901
H -1.2399 2.7671 0.2289
H -1.5746 1.9838 1.7816
H -2.6848 1.7524 0.4198
13
Frame 32
N 2.2905 -1.0681 -0.6352
N 3.2129 -0.4549 -0.6691
H 1.1609 -2.6180 0.1758
C 1.1078 -1.8271 -0.5862
H 0.8486 -2.2457 -1.5693
C -1.6156 1.8541 0.6908
C -0.8271 0.6373 0.2825
O 0.4321 0.6589 0.0971
O -1.3393 -0.5001 0.0965
H 0.3035 -1.1127 -0.2894
H -1.1904 2.7707 0.2650
H -1.6045 1.9581 1.7830
H -2.6628 1.7836 0.3730
13
Frame 33
N 2.2705 -1.0481 -0.6352
N 3.1815 -0.4203 -0.6801
H 1.1888 -2.6258 0.1860
C 1.0981 -1.8348 -0.5737
H 0.8570 -2.2689 -1.5560
C -1.6014 1.8552 0.6874
C -0.8230 0.6287 0.2850
O 0.4360 0.6442 0.0960
O -1.3473 -0.5035 0.1098
H 0.3110 -1.1555 -0.2848
H -1.1373 2.7726 0.3057
H -1.6402 1.9316 1.7811
H -2.6336 1.8169 0.3191
