270681
APtclserve11020909033D 0   0.00000     0.00000147803
 
 79 80  0  0  0  0  0  0  0  0999 V2000
    0.0000    0.0000    0.0000 O   0  0  0  0  0  0  0  0  0  0  0  0
   -1.1200   -0.2000    0.3800 C   0  0  0  0  0  0  0  0  0  0  0  0
   -2.3200   -0.3600   -0.5000 C   0  0  0  0  0  0  0  0  0  0  0  0
   -3.6000   -0.6000    0.0800 C   0  0  0  0  0  0  0  0  0  0  0  0
   -3.7600   -0.6600    1.5600 C   0  0  0  0  0  0  0  0  0  0  0  0
   -4.8000   -0.8400    2.1600 O   0  0  0  0  0  0  0  0  0  0  0  0
   -2.5400   -0.4800    2.3800 C   0  0  0  0  0  0  0  0  0  0  0  0
   -1.3200   -0.2600    1.8400 C   0  0  0  0  0  0  0  0  0  0  0  0
   -0.1200   -0.1000    2.7400 C   0  0  0  0  0  0  0  0  0  0  0  0
    1.3200    2.4000    6.9600 C   0  0  0  0  0  0  0  0  0  0  0  0
    0.4800    3.1600    5.9400 C   0  0  0  0  0  0  0  0  0  0  0  0
    1.0600    3.0800    4.5200 C   0  0  0  0  0  0  0  0  0  0  0  0
    1.0200    1.7000    3.9600 C   0  0  0  0  0  0  0  0  0  0  0  0
   -0.0800    1.3000    3.3000 C   0  0  0  0  0  0  0  0  0  0  0  0
    0.5200    2.0400    8.2200 C   0  0  0  0  0  0  0  0  0  0  0  0
   -0.2600    3.2200    8.7800 C   0  0  0  0  0  0  0  0  0  0  0  0
   -0.8600    2.9400   10.1600 C   0  0  0  0  0  0  0  0  0  0  0  0
   -1.8400    4.0200   10.6200 C   0  0  0  0  0  0  0  0  0  0  0  0
   -2.0800    3.9800   12.1200 C   0  0  0  0  0  0  0  0  0  0  0  0
   -2.3800    2.5600   12.6400 C   0  0  0  0  0  0  0  0  0  0  0  0
   -2.0800    2.4200   14.1400 C   0  0  0  0  0  0  0  0  0  0  0  0
   -1.9400    0.9400   14.5600 C   0  0  0  0  0  0  0  0  0  0  0  0
   -1.4800    0.8000   16.0000 C   0  0  0  0  0  0  0  0  0  0  0  0
   -1.4800   -0.6600   16.4600 C   0  0  0  0  0  0  0  0  0  0  0  0
   -0.1600    1.5200   16.2800 C   0  0  0  0  0  0  0  0  0  0  0  0
   -3.1400    5.0000   12.5800 C   0  0  0  0  0  0  0  0  0  0  0  0
    1.3600    1.3200    9.2600 C   0  0  0  0  0  0  0  0  0  0  0  0
    2.1600    0.7200    4.1000 C   0  0  0  0  0  0  0  0  0  0  0  0
   -2.6800   -0.5400    3.9000 C   0  0  0  0  0  0  0  0  0  0  0  0
   -4.7200   -0.7600   -0.7600 C   0  0  0  0  0  0  0  0  0  0  0  0
   -4.5800   -0.6800   -2.1400 C   0  0  0  0  0  0  0  0  0  0  0  0
   -3.3200   -0.4600   -2.7200 C   0  0  0  0  0  0  0  0  0  0  0  0
   -2.1800   -0.3000   -1.9000 C   0  0  0  0  0  0  0  0  0  0  0  0
    0.7705   -0.2782    2.1741 H   0  0  0  0  0  0  0  0  0  0  0  0
   -0.1842   -0.8022    3.5448 H   0  0  0  0  0  0  0  0  0  0  0  0
    2.1294    3.0343    7.2558 H   0  0  0  0  0  0  0  0  0  0  0  0
    1.6761    1.4975    6.5088 H   0  0  0  0  0  0  0  0  0  0  0  0
    0.4725    4.1901    6.2294 H   0  0  0  0  0  0  0  0  0  0  0  0
   -0.5064    2.7454    5.9312 H   0  0  0  0  0  0  0  0  0  0  0  0
    2.0863    3.3780    4.5726 H   0  0  0  0  0  0  0  0  0  0  0  0
    0.4931    3.7251    3.8817 H   0  0  0  0  0  0  0  0  0  0  0  0
   -0.9114    1.9617    3.1741 H   0  0  0  0  0  0  0  0  0  0  0  0
   -0.2215    1.3323    7.9132 H   0  0  0  0  0  0  0  0  0  0  0  0
   -1.0725    3.4128    8.1110 H   0  0  0  0  0  0  0  0  0  0  0  0
    0.4001    4.0584    8.8590 H   0  0  0  0  0  0  0  0  0  0  0  0
   -0.0519    2.9237   10.8612 H   0  0  0  0  0  0  0  0  0  0  0  0
   -1.3778    2.0044   10.1225 H   0  0  0  0  0  0  0  0  0  0  0  0
   -2.7762    3.8410   10.1339 H   0  0  0  0  0  0  0  0  0  0  0  0
   -1.4420    4.9788   10.3606 H   0  0  0  0  0  0  0  0  0  0  0  0
   -1.1552    4.2774   12.5686 H   0  0  0  0  0  0  0  0  0  0  0  0
   -1.7498    1.8752   12.1121 H   0  0  0  0  0  0  0  0  0  0  0  0
   -3.4143    2.3425   12.4730 H   0  0  0  0  0  0  0  0  0  0  0  0
   -2.8974    2.8449   14.6843 H   0  0  0  0  0  0  0  0  0  0  0  0
   -1.1657    2.9306   14.3597 H   0  0  0  0  0  0  0  0  0  0  0  0
   -1.2029    0.4857   13.9313 H   0  0  0  0  0  0  0  0  0  0  0  0
   -2.8895    0.4587   14.4520 H   0  0  0  0  0  0  0  0  0  0  0  0
   -2.2053    1.3061   16.6022 H   0  0  0  0  0  0  0  0  0  0  0  0
   -0.7059   -1.1946   15.9502 H   0  0  0  0  0  0  0  0  0  0  0  0
   -1.3068   -0.7015   17.5151 H   0  0  0  0  0  0  0  0  0  0  0  0
   -2.4273   -1.1044   16.2363 H   0  0  0  0  0  0  0  0  0  0  0  0
    0.2976    1.0999   17.1513 H   0  0  0  0  0  0  0  0  0  0  0  0
   -0.3489    2.5606   16.4428 H   0  0  0  0  0  0  0  0  0  0  0  0
    0.4948    1.4032   15.4418 H   0  0  0  0  0  0  0  0  0  0  0  0
   -4.1010    4.7060   12.2125 H   0  0  0  0  0  0  0  0  0  0  0  0
   -3.1621    5.0338   13.6492 H   0  0  0  0  0  0  0  0  0  0  0  0
   -2.8928    5.9683   12.1976 H   0  0  0  0  0  0  0  0  0  0  0  0
    2.0693    2.0021    9.6801 H   0  0  0  0  0  0  0  0  0  0  0  0
    0.7242    0.9448   10.0345 H   0  0  0  0  0  0  0  0  0  0  0  0
    1.8784    0.5057    8.7983 H   0  0  0  0  0  0  0  0  0  0  0  0
    1.8214   -0.1482    4.6258 H   0  0  0  0  0  0  0  0  0  0  0  0
    2.5074    0.4358    3.1287 H   0  0  0  0  0  0  0  0  0  0  0  0
    2.9591    1.1779    4.6447 H   0  0  0  0  0  0  0  0  0  0  0  0
   -2.0713   -1.3322    4.2832 H   0  0  0  0  0  0  0  0  0  0  0  0
   -2.3637    0.3900    4.3243 H   0  0  0  0  0  0  0  0  0  0  0  0
   -3.7030   -0.7198    4.1571 H   0  0  0  0  0  0  0  0  0  0  0  0
   -5.6836   -0.9441   -0.3327 H   0  0  0  0  0  0  0  0  0  0  0  0
   -5.4405   -0.7870   -2.7669 H   0  0  0  0  0  0  0  0  0  0  0  0
   -3.2229   -0.4134   -3.7846 H   0  0  0  0  0  0  0  0  0  0  0  0
   -1.2185   -0.1346   -2.3393 H   0  0  0  0  0  0  0  0  0  0  0  0
  1  2  2  0  0  0  0
  2  3  1  0  0  0  0
  3  4  2  0  0  0  0
  4  5  1  0  0  0  0
  5  6  2  0  0  0  0
  5  7  1  0  0  0  0
  7  8  2  0  0  0  0
  2  8  1  0  0  0  0
  8  9  1  0  0  0  0
 10 11  1  0  0  0  0
 11 12  1  0  0  0  0
 12 13  1  0  0  0  0
 13 14  2  0  0  0  0
  9 14  1  0  0  0  0
 10 15  1  0  0  0  0
 15 16  1  0  0  0  0
 16 17  1  0  0  0  0
 17 18  1  0  0  0  0
 18 19  1  0  0  0  0
 19 20  1  0  0  0  0
 20 21  1  0  0  0  0
 21 22  1  0  0  0  0
 22 23  1  0  0  0  0
 23 24  1  0  0  0  0
 23 25  1  0  0  0  0
 19 26  1  0  0  0  0
 15 27  1  0  0  0  0
 13 28  1  0  0  0  0
  7 29  1  0  0  0  0
  4 30  1  0  0  0  0
 30 31  2  0  0  0  0
 31 32  1  0  0  0  0
 32 33  2  0  0  0  0
  3 33  1  0  0  0  0
  9 34  1  0  0  0  0
  9 35  1  0  0  0  0
 10 36  1  0  0  0  0
 10 37  1  0  0  0  0
 11 38  1  0  0  0  0
 11 39  1  0  0  0  0
 12 40  1  0  0  0  0
 12 41  1  0  0  0  0
 14 42  1  0  0  0  0
 15 43  1  0  0  0  0
 16 44  1  0  0  0  0
 16 45  1  0  0  0  0
 17 46  1  0  0  0  0
 17 47  1  0  0  0  0
 18 48  1  0  0  0  0
 18 49  1  0  0  0  0
 19 50  1  0  0  0  0
 20 51  1  0  0  0  0
 20 52  1  0  0  0  0
 21 53  1  0  0  0  0
 21 54  1  0  0  0  0
 22 55  1  0  0  0  0
 22 56  1  0  0  0  0
 23 57  1  0  0  0  0
 24 58  1  0  0  0  0
 24 59  1  0  0  0  0
 24 60  1  0  0  0  0
 25 61  1  0  0  0  0
 25 62  1  0  0  0  0
 25 63  1  0  0  0  0
 26 64  1  0  0  0  0
 26 65  1  0  0  0  0
 26 66  1  0  0  0  0
 27 67  1  0  0  0  0
 27 68  1  0  0  0  0
 27 69  1  0  0  0  0
 28 70  1  0  0  0  0
 28 71  1  0  0  0  0
 28 72  1  0  0  0  0
 29 73  1  0  0  0  0
 29 74  1  0  0  0  0
 29 75  1  0  0  0  0
 30 76  1  0  0  0  0
 31 77  1  0  0  0  0
 32 78  1  0  0  0  0
 33 79  1  0  0  0  0
M  END
$$$$
