17
Frame 1
H -1.7927 0.0186 1.4089
C -2.0412 0.4660 0.4722
C -1.1535 1.1366 -0.2338
H -3.0618 0.4033 0.1493
O 0.1952 1.1758 0.0751
H -1.4177 1.5965 -1.1685
C 0.9947 -0.0599 -0.3644
C 2.3965 0.1853 0.1794
H 0.9879 -0.0581 -1.4452
C 0.2847 -1.2469 0.1859
C -0.8673 -1.6329 -0.3296
H 0.5937 -1.5957 1.1541
H -1.1997 -1.3006 -1.2918
H -1.5128 -2.3317 0.1676
H 2.7133 1.1819 -0.0956
H 3.0955 -0.5385 -0.2225
H 2.3913 0.1143 1.2597
17
Frame 2
H -1.7859 0.0135 1.4114
C -2.0335 0.4445 0.4667
C -1.1537 1.1351 -0.2333
H -3.0513 0.3640 0.1386
O 0.1903 1.1867 0.0763
H -1.4240 1.5842 -1.1719
C 1.0025 -0.0725 -0.3671
C 2.4002 0.1831 0.1794
H 0.9900 -0.0611 -1.4471
C 0.2850 -1.2464 0.1857
C -0.8791 -1.6100 -0.3237
H 0.5850 -1.5896 1.1586
H -1.2008 -1.2903 -1.2937
H -1.5360 -2.2940 0.1790
H 2.7055 1.1841 -0.0923
H 3.1087 -0.5312 -0.2231
H 2.3938 0.1095 1.2594
17
Frame 3
H -1.7809 0.0113 1.4147
C -2.0259 0.4242 0.4613
C -1.1534 1.1348 -0.2326
H -3.0413 0.3297 0.1290
O 0.1833 1.1997 0.0786
H -1.4300 1.5730 -1.1752
C 1.0116 -0.0886 -0.3705
C 2.4035 0.1808 0.1793
H 0.9913 -0.0642 -1.4493
C 0.2860 -1.2462 0.1852
C -0.8901 -1.5885 -0.3181
H 0.5774 -1.5837 1.1625
H -1.2014 -1.2840 -1.2963
H -1.5550 -2.2613 0.1891
H 2.6964 1.1858 -0.0904
H 3.1225 -0.5237 -0.2222
H 2.3953 0.1058 1.2590
17
Frame 4
H -1.7777 0.0114 1.4189
C -2.0185 0.4049 0.4560
C -1.1525 1.1354 -0.2318
H -3.0321 0.3007 0.1207
O 0.1745 1.2140 0.0815
H -1.4355 1.5632 -1.1781
C 1.0217 -0.1071 -0.3743
C 2.4065 0.1785 0.1790
H 0.9916 -0.0666 -1.4516
C 0.2877 -1.2460 0.1845
C -0.9007 -1.5682 -0.3129
H 0.5712 -1.5780 1.1660
H -1.2019 -1.2814 -1.2995
H -1.5701 -2.2340 0.1975
H 2.6867 1.1872 -0.0896
H 3.1363 -0.5162 -0.2205
H 2.3961 0.1031 1.2586
17
Frame 5
H -1.7761 0.0135 1.4236
C -2.0112 0.3863 0.4509
C -1.1507 1.1367 -0.2311
H -3.0238 0.2767 0.1139
O 0.1644 1.2290 0.0848
H -1.4402 1.5547 -1.1806
C 1.0323 -0.1273 -0.3783
C 2.4090 0.1762 0.1788
H 0.9909 -0.0682 -1.4534
C 0.2900 -1.2455 0.1837
C -0.9110 -1.5491 -0.3078
H 0.5663 -1.5725 1.1688
H -1.2022 -1.2819 -1.3031
H -1.5818 -2.2120 0.2042
H 2.6768 1.1883 -0.0896
H 3.1493 -0.5089 -0.2183
H 2.3966 0.1010 1.2582
17
Frame 6
H -1.7759 0.0174 1.4289
C -2.0040 0.3679 0.4459
C -1.1480 1.1385 -0.2304
H -3.0164 0.2570 0.1084
O 0.1535 1.2442 0.0881
H -1.4441 1.5477 -1.1827
C 1.0432 -0.1485 -0.3823
C 2.4112 0.1742 0.1785
H 0.9889 -0.0685 -1.4545
C 0.2929 -1.2445 0.1829
C -0.9215 -1.5307 -0.3031
H 0.5626 -1.5674 1.1712
H -1.2024 -1.2850 -1.3070
H -1.5908 -2.1950 0.2092
H 2.6672 1.1890 -0.0901
H 3.1615 -0.5019 -0.2160
H 2.3968 0.0993 1.2578
17
Frame 7
H -1.7768 0.0228 1.4345
C -1.9969 0.3494 0.4412
C -1.1444 1.1410 -0.2298
H -3.0100 0.2410 0.1041
O 0.1419 1.2592 0.0914
H -1.4473 1.5422 -1.1844
C 1.0540 -0.1703 -0.3862
C 2.4130 0.1722 0.1782
H 0.9858 -0.0673 -1.4547
C 0.2965 -1.2428 0.1821
C -0.9325 -1.5128 -0.2984
H 0.5600 -1.5628 1.1731
H -1.2025 -1.2903 -1.3111
H -1.5976 -2.1823 0.2125
H 2.6581 1.1896 -0.0908
H 3.1727 -0.4951 -0.2136
H 2.3970 0.0978 1.2574
17
Frame 8
H -1.7787 0.0295 1.4403
C -1.9899 0.3306 0.4365
C -1.1399 1.1439 -0.2295
H -3.0043 0.2279 0.1009
O 0.1302 1.2739 0.0944
H -1.4499 1.5384 -1.1858
C 1.0646 -0.1922 -0.3897
C 2.4147 0.1705 0.1779
H 0.9817 -0.0648 -1.4538
C 0.3007 -1.2406 0.1815
C -0.9442 -1.4953 -0.2939
H 0.5584 -1.5586 1.1746
H -1.2024 -1.2970 -1.3151
H -1.6024 -2.1738 0.2143
H 2.6497 1.1899 -0.0917
H 3.1832 -0.4886 -0.2113
H 2.3973 0.0966 1.2570
17
Frame 9
H -1.7874 0.0537 1.4558
C -1.9685 0.2705 0.4227
C -1.1240 1.1548 -0.2300
H -2.9895 0.1985 0.0954
O 0.0957 1.3158 0.1026
H -1.4566 1.5381 -1.1866
C 1.0948 -0.2557 -0.3993
C 2.4192 0.1654 0.1770
H 0.9659 -0.0526 -1.4455
C 0.3154 -1.2314 0.1805
C -0.9839 -1.4440 -0.2800
H 0.5583 -1.5506 1.1773
H -1.2019 -1.3205 -1.3245
H -1.6089 -2.1653 0.2125
H 2.6271 1.1904 -0.0942
H 3.2125 -0.4697 -0.2042
H 2.3988 0.0936 1.2561
17
Frame 10
H -1.7904 0.0614 1.4593
C -1.9608 0.2491 0.4177
C -1.1191 1.1588 -0.2307
H -2.9842 0.1894 0.0939
O 0.0851 1.3295 0.1052
H -1.4593 1.5419 -1.1855
C 1.1045 -0.2756 -0.4024
C 2.4209 0.1635 0.1766
H 0.9608 -0.0486 -1.4415
C 0.3201 -1.2281 0.1807
C -0.9984 -1.4269 -0.2750
H 0.5593 -1.5496 1.1778
H -1.2023 -1.3270 -1.3258
H -1.6093 -2.1658 0.2102
H 2.6199 1.1903 -0.0949
H 3.2225 -0.4632 -0.2017
H 2.3996 0.0926 1.2558
17
Frame 11
H -1.7928 0.0677 1.4613
C -1.9525 0.2270 0.4123
C -1.1150 1.1626 -0.2316
H -2.9785 0.1795 0.0921
O 0.0752 1.3432 0.1077
H -1.4627 1.5476 -1.1836
C 1.1143 -0.2945 -0.4055
C 2.4228 0.1615 0.1762
H 0.9564 -0.0454 -1.4374
C 0.3242 -1.2249 0.1812
C -1.0132 -1.4096 -0.2695
H 0.5604 -1.5492 1.1782
H -1.2033 -1.3318 -1.3260
H -1.6095 -2.1666 0.2078
H 2.6125 1.1900 -0.0957
H 3.2329 -0.4563 -0.1990
H 2.4005 0.0916 1.2555
17
Frame 12
H -1.7945 0.0724 1.4618
C -1.9436 0.2045 0.4063
C -1.1118 1.1662 -0.2327
H -2.9720 0.1683 0.0899
O 0.0660 1.3572 0.1104
H -1.4671 1.5550 -1.1809
C 1.1239 -0.3126 -0.4087
C 2.4250 0.1591 0.1757
H 0.9530 -0.0434 -1.4334
C 0.3274 -1.2219 0.1819
C -1.0281 -1.3922 -0.2635
H 0.5615 -1.5495 1.1786
H -1.2052 -1.3343 -1.3248
H -1.6095 -2.1671 0.2051
H 2.6050 1.1895 -0.0965
H 3.2439 -0.4492 -0.1964
H 2.4015 0.0904 1.2552
17
Frame 13
H -1.7952 0.0748 1.4607
C -1.9341 0.1815 0.3999
C -1.1096 1.1695 -0.2338
H -2.9647 0.1556 0.0871
O 0.0574 1.3715 0.1132
H -1.4726 1.5641 -1.1771
C 1.1335 -0.3298 -0.4121
C 2.4276 0.1565 0.1751
H 0.9507 -0.0427 -1.4299
C 0.3297 -1.2192 0.1830
C -1.0429 -1.3749 -0.2571
H 0.5623 -1.5502 1.1791
H -1.2081 -1.3344 -1.3224
H -1.6100 -2.1668 0.2027
H 2.5971 1.1887 -0.0972
H 3.2553 -0.4419 -0.1937
H 2.4026 0.0888 1.2547
17
Frame 14
H -1.7947 0.0748 1.4581
C -1.9241 0.1585 0.3929
C -1.1082 1.1726 -0.2351
H -2.9567 0.1413 0.0836
O 0.0492 1.3862 0.1160
H -1.4794 1.5746 -1.1723
C 1.1428 -0.3462 -0.4154
C 2.4306 0.1535 0.1744
H 0.9498 -0.0436 -1.4269
C 0.3311 -1.2167 0.1843
C -1.0574 -1.3578 -0.2504
H 0.5625 -1.5510 1.1797
H -1.2118 -1.3322 -1.3189
H -1.6109 -2.1655 0.2005
H 2.5890 1.1877 -0.0978
H 3.2673 -0.4343 -0.1912
H 2.4041 0.0868 1.2541
17
Frame 15
H -1.7933 0.0725 1.4541
C -1.9135 0.1355 0.3854
C -1.1076 1.1753 -0.2362
H -2.9480 0.1255 0.0795
O 0.0413 1.4016 0.1189
H -1.4878 1.5862 -1.1662
C 1.1520 -0.3622 -0.4188
C 2.4340 0.1500 0.1737
H 0.9502 -0.0462 -1.4246
C 0.3317 -1.2143 0.1860
C -1.0713 -1.3411 -0.2435
H 0.5620 -1.5518 1.1807
H -1.2162 -1.3280 -1.3147
H -1.6126 -2.1630 0.1986
H 2.5806 1.1862 -0.0982
H 3.2797 -0.4266 -0.1891
H 2.4058 0.0842 1.2535
17
Frame 16
H -1.7907 0.0680 1.4491
C -1.9026 0.1129 0.3776
C -1.1077 1.1778 -0.2373
H -2.9387 0.1085 0.0749
O 0.0333 1.4178 0.1218
H -1.4979 1.5987 -1.1588
C 1.1611 -0.3778 -0.4222
C 2.4378 0.1460 0.1728
H 0.9520 -0.0507 -1.4231
C 0.3315 -1.2120 0.1879
C -1.0843 -1.3252 -0.2367
H 0.5607 -1.5523 1.1821
H -1.2210 -1.3222 -1.3099
H -1.6148 -2.1597 0.1971
H 2.5719 1.1843 -0.0985
H 3.2925 -0.4188 -0.1874
H 2.4082 0.0807 1.2526
17
Frame 17
H -1.7873 0.0617 1.4433
C -1.8915 0.0911 0.3696
C -1.1085 1.1803 -0.2381
H -2.9291 0.0908 0.0698
O 0.0251 1.4354 0.1249
H -1.5100 1.6119 -1.1500
C 1.1701 -0.3935 -0.4256
C 2.4422 0.1412 0.1718
H 0.9551 -0.0575 -1.4226
C 0.3307 -1.2097 0.1902
C -1.0962 -1.3105 -0.2302
H 0.5583 -1.5519 1.1842
H -1.2256 -1.3157 -1.3052
H -1.6175 -2.1557 0.1959
H 2.5628 1.1817 -0.0983
H 3.3057 -0.4110 -0.1866
H 2.4113 0.0759 1.2516
17
Frame 18
H -1.7830 0.0537 1.4370
C -1.8804 0.0707 0.3617
C -1.1101 1.1828 -0.2386
H -2.9194 0.0730 0.0646
O 0.0162 1.4547 0.1281
H -1.5242 1.6254 -1.1397
C 1.1790 -0.4096 -0.4290
C 2.4471 0.1355 0.1706
H 0.9600 -0.0672 -1.4232
C 0.3294 -1.2074 0.1929
C -1.1065 -1.2978 -0.2245
H 0.5547 -1.5501 1.1874
H -1.2295 -1.3093 -1.3008
H -1.6204 -2.1516 0.1948
H 2.5535 1.1782 -0.0975
H 3.3192 -0.4033 -0.1871
H 2.4157 0.0691 1.2504
17
Frame 19
H -1.7780 0.0447 1.4307
C -1.8701 0.0525 0.3543
C -1.1127 1.1858 -0.2387
H -2.9102 0.0562 0.0596
O 0.0062 1.4762 0.1315
H -1.5407 1.6387 -1.1282
C 1.1880 -0.4263 -0.4323
C 2.4526 0.1284 0.1691
H 0.9667 -0.0806 -1.4252
C 0.3277 -1.2051 0.1961
C -1.1143 -1.2881 -0.2201
H 0.5498 -1.5462 1.1922
H -1.2316 -1.3043 -1.2975
H -1.6231 -2.1482 0.1936
H 2.5438 1.1737 -0.0957
H 3.3330 -0.3960 -0.1897
H 2.4219 0.0595 1.2488
17
Frame 20
H -1.7727 0.0354 1.4250
C -1.8610 0.0376 0.3477
C -1.1164 1.1894 -0.2382
H -2.9021 0.0416 0.0554
O -0.0050 1.5000 0.1350
H -1.5589 1.6507 -1.1165
C 1.1969 -0.4433 -0.4353
C 2.4588 0.1197 0.1672
H 0.9754 -0.0980 -1.4287
C 0.3262 -1.2031 0.2000
C -1.1191 -1.2822 -0.2177
H 0.5436 -1.5395 1.1988
H -1.2310 -1.3016 -1.2959
H -1.6247 -2.1467 0.1918
H 2.5344 1.1678 -0.0923
H 3.3463 -0.3896 -0.1951
H 2.4304 0.0460 1.2467
17
Frame 21
H -1.7675 0.0268 1.4201
C -1.8537 0.0264 0.3424
C -1.1211 1.1940 -0.2372
H -2.8957 0.0298 0.0525
O -0.0174 1.5253 0.1384
H -1.5775 1.6604 -1.1059
C 1.2056 -0.4602 -0.4378
C 2.4654 0.1095 0.1650
H 0.9856 -0.1193 -1.4336
C 0.3251 -1.2014 0.2044
C -1.1206 -1.2803 -0.2174
H 0.5367 -1.5299 1.2072
H -1.2271 -1.3016 -1.2963
H -1.6247 -2.1472 0.1891
H 2.5258 1.1608 -0.0868
H 3.3586 -0.3847 -0.2039
H 2.4417 0.0282 1.2442
17
Frame 22
H -1.7624 0.0192 1.4163
C -1.8480 0.0182 0.3382
C -1.1269 1.1992 -0.2361
H -2.8910 0.0205 0.0508
O -0.0307 1.5510 0.1418
H -1.5954 1.6676 -1.0974
C 1.2138 -0.4762 -0.4398
C 2.4722 0.0981 0.1625
H 0.9969 -0.1428 -1.4391
C 0.3247 -1.2001 0.2092
C -1.1195 -1.2810 -0.2186
H 0.5300 -1.5182 1.2167
H -1.2204 -1.3034 -1.2980
H -1.6232 -2.1496 0.1855
H 2.5186 1.1527 -0.0790
H 3.3694 -0.3813 -0.2163
H 2.4556 0.0061 1.2410
17
Frame 23
H -1.7577 0.0126 1.4128
C -1.8435 0.0120 0.3346
C -1.1333 1.2048 -0.2351
H -2.8874 0.0126 0.0498
O -0.0447 1.5764 0.1451
H -1.6122 1.6724 -1.0913
C 1.2216 -0.4911 -0.4412
C 2.4795 0.0855 0.1597
H 1.0085 -0.1672 -1.4448
C 0.3251 -1.1990 0.2142
C -1.1167 -1.2828 -0.2206
H 0.5239 -1.5055 1.2266
H -1.2115 -1.3056 -1.3005
H -1.6207 -2.1525 0.1810
H 2.5128 1.1438 -0.0687
H 3.3788 -0.3793 -0.2317
H 2.4721 -0.0200 1.2372
17
Frame 24
H -1.7533 0.0070 1.4100
C -1.8397 0.0069 0.3315
C -1.1403 1.2103 -0.2345
H -2.8845 0.0048 0.0492
O -0.0596 1.6011 0.1485
H -1.6278 1.6751 -1.0877
C 1.2293 -0.5051 -0.4421
C 2.4874 0.0721 0.1568
H 1.0200 -0.1908 -1.4499
C 0.3261 -1.1978 0.2193
C -1.1130 -1.2846 -0.2226
H 0.5187 -1.4930 1.2363
H -1.2016 -1.3073 -1.3031
H -1.6175 -2.1555 0.1761
H 2.5084 1.1343 -0.0560
H 3.3874 -0.3779 -0.2499
H 2.4911 -0.0497 1.2327
17
Frame 25
H -1.7495 0.0027 1.4072
C -1.8367 0.0027 0.3288
C -1.1477 1.2157 -0.2345
H -2.8822 -0.0026 0.0488
O -0.0752 1.6250 0.1518
H -1.6422 1.6758 -1.0861
C 1.2369 -0.5180 -0.4426
C 2.4961 0.0578 0.1538
H 1.0313 -0.2132 -1.4543
C 0.3276 -1.1966 0.2243
C -1.1088 -1.2859 -0.2246
H 0.5145 -1.4813 1.2453
H -1.1911 -1.3081 -1.3056
H -1.6138 -2.1580 0.1710
H 2.5054 1.1239 -0.0408
H 3.3955 -0.3768 -0.2703
H 2.5126 -0.0826 1.2274
17
Frame 26
H -1.7462 -0.0006 1.4048
C -1.8343 -0.0009 0.3263
C -1.1556 1.2206 -0.2351
H -2.8804 -0.0102 0.0484
O -0.0917 1.6478 0.1552
H -1.6553 1.6746 -1.0873
C 1.2445 -0.5299 -0.4428
C 2.5057 0.0428 0.1508
H 1.0423 -0.2335 -1.4580
C 0.3294 -1.1950 0.2291
C -1.1043 -1.2865 -0.2262
H 0.5115 -1.4709 1.2535
H -1.1807 -1.3080 -1.3076
H -1.6097 -2.1600 0.1661
H 2.5043 1.1128 -0.0235
H 3.4034 -0.3761 -0.2923
H 2.5363 -0.1183 1.2212
17
Frame 27
H -1.7436 -0.0027 1.4027
C -1.8326 -0.0037 0.3242
C -1.1638 1.2250 -0.2363
H -2.8793 -0.0176 0.0482
O -0.1089 1.6695 0.1586
H -1.6669 1.6713 -1.0906
C 1.2521 -0.5407 -0.4428
C 2.5164 0.0271 0.1478
H 1.0529 -0.2514 -1.4606
C 0.3317 -1.1932 0.2337
C -1.0997 -1.2863 -0.2275
H 0.5095 -1.4618 1.2606
H -1.1706 -1.3069 -1.3093
H -1.6052 -2.1614 0.1614
H 2.5050 1.1008 -0.0040
H 3.4111 -0.3755 -0.3157
H 2.5621 -0.1564 1.2141
17
Frame 28
H -1.7415 -0.0036 1.4009
C -1.8315 -0.0060 0.3225
C -1.1723 1.2288 -0.2382
H -2.8787 -0.0249 0.0481
O -0.1267 1.6902 0.1621
H -1.6768 1.6660 -1.0964
C 1.2598 -0.5504 -0.4425
C 2.5280 0.0108 0.1448
H 1.0632 -0.2667 -1.4626
C 0.3344 -1.1911 0.2378
C -1.0950 -1.2854 -0.2283
H 0.5087 -1.4541 1.2668
H -1.1610 -1.3051 -1.3105
H -1.6003 -2.1621 0.1572
H 2.5083 1.0878 0.0169
H 3.4187 -0.3757 -0.3396
H 2.5893 -0.1964 1.2061
17
Frame 29
H -1.7401 -0.0035 1.3995
C -1.8311 -0.0077 0.3211
C -1.1808 1.2321 -0.2406
H -2.8786 -0.0322 0.0481
O -0.1451 1.7098 0.1657
H -1.6851 1.6588 -1.1045
C 1.2676 -0.5588 -0.4421
C 2.5405 -0.0061 0.1420
H 1.0729 -0.2793 -1.4638
C 0.3373 -1.1887 0.2416
C -1.0905 -1.2838 -0.2288
H 0.5089 -1.4479 1.2720
H -1.1521 -1.3025 -1.3113
H -1.5952 -2.1623 0.1535
H 2.5143 1.0736 0.0389
H 3.4261 -0.3769 -0.3635
H 2.6174 -0.2376 1.1973
17
Frame 30
H -1.7391 -0.0025 1.3983
C -1.8313 -0.0090 0.3201
C -1.1895 1.2347 -0.2436
H -2.8790 -0.0392 0.0484
O -0.1640 1.7285 0.1693
H -1.6917 1.6497 -1.1144
C 1.2753 -0.5661 -0.4416
C 2.5538 -0.0236 0.1392
H 1.0822 -0.2891 -1.4643
C 0.3405 -1.1860 0.2450
C -1.0860 -1.2816 -0.2290
H 0.5100 -1.4429 1.2763
H -1.1438 -1.2994 -1.3117
H -1.5897 -2.1621 0.1504
H 2.5235 1.0584 0.0611
H 3.4333 -0.3798 -0.3868
H 2.6458 -0.2793 1.1878
17
Frame 31
H -1.7383 -0.0009 1.3975
C -1.8318 -0.0099 0.3194
C -1.1980 1.2368 -0.2469
H -2.8798 -0.0462 0.0489
O -0.1833 1.7464 0.1728
H -1.6965 1.6391 -1.1258
C 1.2828 -0.5722 -0.4409
C 2.5677 -0.0416 0.1366
H 1.0910 -0.2963 -1.4643
C 0.3439 -1.1830 0.2479
C -1.0816 -1.2790 -0.2289
H 0.5120 -1.4393 1.2796
H -1.1362 -1.2959 -1.3118
H -1.5840 -2.1615 0.1477
H 2.5359 1.0421 0.0827
H 3.4406 -0.3847 -0.4087
H 2.6737 -0.3209 1.1777
17
Frame 32
H -1.7380 0.0014 1.3969
C -1.8327 -0.0107 0.3190
C -1.2065 1.2384 -0.2506
H -2.8808 -0.0530 0.0496
O -0.2030 1.7637 0.1765
H -1.6999 1.6269 -1.1386
C 1.2903 -0.5771 -0.4403
C 2.5820 -0.0600 0.1340
H 1.0993 -0.3010 -1.4637
C 0.3475 -1.1798 0.2505
C -1.0773 -1.2761 -0.2285
H 0.5147 -1.4367 1.2822
H -1.1292 -1.2921 -1.3116
H -1.5780 -2.1607 0.1455
H 2.5517 1.0248 0.1032
H 3.4476 -0.3926 -0.4292
H 2.7004 -0.3617 1.1677
17
Frame 33
H -1.7375 0.0039 1.3966
C -1.8337 -0.0112 0.3189
C -1.2147 1.2395 -0.2545
H -2.8818 -0.0597 0.0506
O -0.2231 1.7806 0.1800
H -1.7018 1.6135 -1.1522
C 1.2975 -0.5809 -0.4395
C 2.5967 -0.0789 0.1315
H 1.1072 -0.3034 -1.4628
C 0.3512 -1.1764 0.2528
C -1.0731 -1.2730 -0.2280
H 0.5181 -1.4352 1.2840
H -1.1227 -1.2880 -1.3113
H -1.5717 -2.1598 0.1435
H 2.5710 1.0066 0.1218
H 3.4546 -0.4033 -0.4478
H 2.7258 -0.4015 1.1575
17
Frame 34
H -1.7372 0.0068 1.3965
C -1.8348 -0.0117 0.3190
C -1.2228 1.2403 -0.2584
H -2.8830 -0.0663 0.0519
O -0.2434 1.7971 0.1835
H -1.7027 1.5992 -1.1663
C 1.3046 -0.5838 -0.4386
C 2.6116 -0.0981 0.1291
H 1.1147 -0.3039 -1.4613
C 0.3551 -1.1729 0.2547
C -1.0689 -1.2696 -0.2273
H 0.5218 -1.4345 1.2853
H -1.1167 -1.2836 -1.3108
H -1.5653 -2.1588 0.1418
H 2.5932 0.9877 0.1380
H 3.4616 -0.4176 -0.4645
H 2.7490 -0.4394 1.1480
17
Frame 35
H -1.7368 0.0096 1.3965
C -1.8359 -0.0122 0.3193
C -1.2305 1.2408 -0.2624
H -2.8841 -0.0728 0.0533
O -0.2641 1.8136 0.1870
H -1.7022 1.5842 -1.1805
C 1.3116 -0.5859 -0.4377
C 2.6264 -0.1176 0.1266
H 1.1220 -0.3029 -1.4596
C 0.3591 -1.1694 0.2564
C -1.0647 -1.2662 -0.2267
H 0.5259 -1.4346 1.2861
H -1.1108 -1.2793 -1.3102
H -1.5587 -2.1578 0.1401
H 2.6181 0.9681 0.1515
H 3.4686 -0.4351 -0.4790
H 2.7704 -0.4755 1.1389
17
Frame 36
H -1.7364 0.0126 1.3967
C -1.8368 -0.0127 0.3197
C -1.2382 1.2411 -0.2663
H -2.8851 -0.0791 0.0549
O -0.2849 1.8298 0.1905
H -1.7013 1.5686 -1.1947
C 1.3185 -0.5874 -0.4367
C 2.6413 -0.1374 0.1242
H 1.1291 -0.3007 -1.4577
C 0.3631 -1.1657 0.2579
C -1.0606 -1.2628 -0.2261
H 0.5303 -1.4352 1.2864
H -1.1053 -1.2747 -1.3098
H -1.5521 -2.1567 0.1385
H 2.6454 0.9482 0.1620
H 3.4755 -0.4560 -0.4917
H 2.7893 -0.5091 1.1309
17
Frame 37
H -1.7355 0.0154 1.3970
C -1.8377 -0.0132 0.3203
C -1.2454 1.2412 -0.2701
H -2.8860 -0.0854 0.0567
O -0.3061 1.8460 0.1939
H -1.6987 1.5528 -1.2088
C 1.3253 -0.5886 -0.4358
C 2.6559 -0.1571 0.1218
H 1.1364 -0.2982 -1.4557
C 0.3672 -1.1621 0.2591
C -1.0565 -1.2594 -0.2255
H 0.5348 -1.4360 1.2865
H -1.0999 -1.2700 -1.3093
H -1.5453 -2.1557 0.1368
H 2.6741 0.9278 0.1693
H 3.4824 -0.4800 -0.5024
H 2.8064 -0.5405 1.1239
17
Frame 38
H -1.7346 0.0182 1.3973
C -1.8383 -0.0137 0.3210
C -1.2525 1.2414 -0.2737
H -2.8866 -0.0914 0.0588
O -0.3275 1.8623 0.1973
H -1.6962 1.5368 -1.2224
C 1.3321 -0.5896 -0.4347
C 2.6704 -0.1771 0.1194
H 1.1435 -0.2948 -1.4535
C 0.3714 -1.1587 0.2603
C -1.0523 -1.2559 -0.2250
H 0.5393 -1.4373 1.2863
H -1.0946 -1.2651 -1.3089
H -1.5385 -2.1547 0.1348
H 2.7043 0.9072 0.1742
H 3.4891 -0.5064 -0.5115
H 2.8213 -0.5695 1.1179
17
Frame 39
H -1.7335 0.0208 1.3977
C -1.8387 -0.0142 0.3217
C -1.2592 1.2414 -0.2772
H -2.8870 -0.0974 0.0608
O -0.3492 1.8787 0.2007
H -1.6921 1.5207 -1.2355
C 1.3390 -0.5906 -0.4338
C 2.6845 -0.1969 0.1170
H 1.1510 -0.2921 -1.4516
C 0.3756 -1.1552 0.2613
C -1.0481 -1.2525 -0.2246
H 0.5438 -1.4382 1.2860
H -1.0892 -1.2604 -1.3087
H -1.5318 -2.1536 0.1330
H 2.7350 0.8864 0.1763
H 3.4957 -0.5351 -0.5192
H 2.8347 -0.5963 1.1128
17
Frame 40
H -1.7323 0.0234 1.3982
C -1.8389 -0.0148 0.3225
C -1.2657 1.2416 -0.2804
H -2.8872 -0.1031 0.0629
O -0.3711 1.8952 0.2041
H -1.6879 1.5047 -1.2483
C 1.3459 -0.5917 -0.4329
C 2.6982 -0.2168 0.1146
H 1.1587 -0.2893 -1.4498
C 0.3798 -1.1519 0.2622
C -1.0438 -1.2491 -0.2243
H 0.5483 -1.4392 1.2858
H -1.0840 -1.2553 -1.3084
H -1.5248 -2.1526 0.1307
H 2.7661 0.8656 0.1759
H 3.5021 -0.5656 -0.5253
H 2.8463 -0.6208 1.1088
17
Frame 41
H -1.7307 0.0259 1.3986
C -1.8388 -0.0153 0.3232
C -1.2718 1.2418 -0.2834
H -2.8870 -0.1086 0.0650
O -0.3934 1.9119 0.2076
H -1.6827 1.4891 -1.2603
C 1.3529 -0.5933 -0.4322
C 2.7117 -0.2364 0.1122
H 1.1666 -0.2877 -1.4483
C 0.3842 -1.1487 0.2631
C -1.0395 -1.2458 -0.2241
H 0.5525 -1.4398 1.2855
H -1.0785 -1.2504 -1.3084
H -1.5182 -2.1516 0.1285
H 2.7970 0.8446 0.1736
H 3.5082 -0.5973 -0.5302
H 2.8568 -0.6433 1.1057
17
Frame 42
H -1.7290 0.0282 1.3991
C -1.8384 -0.0158 0.3240
C -1.2777 1.2421 -0.2863
H -2.8867 -0.1139 0.0671
O -0.4159 1.9287 0.2112
H -1.6768 1.4735 -1.2721
C 1.3602 -0.5953 -0.4317
C 2.7247 -0.2559 0.1098
H 1.1751 -0.2871 -1.4472
C 0.3885 -1.1455 0.2639
C -1.0351 -1.2425 -0.2239
H 0.5566 -1.4396 1.2855
H -1.0732 -1.2454 -1.3083
H -1.5113 -2.1506 0.1261
H 2.8277 0.8237 0.1694
H 3.5142 -0.6300 -0.5340
H 2.8661 -0.6639 1.1034
17
Frame 43
H -1.7272 0.0305 1.3994
C -1.8378 -0.0162 0.3247
C -1.2830 1.2425 -0.2890
H -2.8861 -0.1190 0.0691
O -0.4389 1.9457 0.2149
H -1.6696 1.4583 -1.2832
C 1.3674 -0.5978 -0.4313
C 2.7374 -0.2752 0.1074
H 1.1838 -0.2878 -1.4465
C 0.3929 -1.1425 0.2647
C -1.0307 -1.2392 -0.2239
H 0.5606 -1.4390 1.2857
H -1.0677 -1.2404 -1.3083
H -1.5048 -2.1495 0.1237
H 2.8574 0.8028 0.1634
H 3.5198 -0.6630 -0.5367
H 2.8747 -0.6826 1.1017
17
Frame 44
H -1.7254 0.0328 1.3998
C -1.8368 -0.0166 0.3252
C -1.2881 1.2431 -0.2914
H -2.8850 -0.1237 0.0707
O -0.4621 1.9629 0.2188
H -1.6616 1.4433 -1.2941
C 1.3749 -0.6012 -0.4313
C 2.7495 -0.2940 0.1049
H 1.1930 -0.2905 -1.4467
C 0.3973 -1.1395 0.2654
C -1.0262 -1.2361 -0.2239
H 0.5641 -1.4370 1.2863
H -1.0621 -1.2357 -1.3084
H -1.4981 -2.1484 0.1213
H 2.8863 0.7822 0.1562
H 3.5254 -0.6963 -0.5385
H 2.8824 -0.6995 1.1007
17
Frame 45
H -1.7237 0.0350 1.4000
C -1.8357 -0.0169 0.3257
C -1.2925 1.2437 -0.2937
H -2.8838 -0.1281 0.0720
O -0.4857 1.9802 0.2230
H -1.6521 1.4288 -1.3043
C 1.3824 -0.6051 -0.4315
C 2.7613 -0.3126 0.1024
H 1.2025 -0.2949 -1.4474
C 0.4017 -1.1366 0.2662
C -1.0217 -1.2331 -0.2239
H 0.5676 -1.4342 1.2873
H -1.0565 -1.2311 -1.3085
H -1.4916 -2.1474 0.1189
H 2.9140 0.7616 0.1475
H 3.5308 -0.7295 -0.5394
H 2.8893 -0.7146 1.1002
17
Frame 46
H -1.7220 0.0373 1.4000
C -1.8343 -0.0171 0.3259
C -1.2965 1.2445 -0.2958
H -2.8823 -0.1319 0.0729
O -0.5096 1.9976 0.2275
H -1.6412 1.4143 -1.3143
C 1.3900 -0.6100 -0.4320
C 2.7727 -0.3307 0.0998
H 1.2123 -0.3014 -1.4488
C 0.4060 -1.1337 0.2671
C -1.0172 -1.2301 -0.2239
H 0.5707 -1.4301 1.2887
H -1.0509 -1.2268 -1.3086
H -1.4851 -2.1463 0.1168
H 2.9406 0.7416 0.1378
H 3.5362 -0.7625 -0.5396
H 2.8958 -0.7281 1.1001
17
Frame 47
H -1.7207 0.0393 1.3999
C -1.8328 -0.0173 0.3259
C -1.2999 1.2456 -0.2977
H -2.8806 -0.1357 0.0732
O -0.5337 2.0149 0.2322
H -1.6290 1.4007 -1.3239
C 1.3978 -0.6157 -0.4329
C 2.7836 -0.3484 0.0972
H 1.2226 -0.3102 -1.4511
C 0.4104 -1.1306 0.2680
C -1.0126 -1.2273 -0.2239
H 0.5734 -1.4244 1.2906
H -1.0451 -1.2229 -1.3086
H -1.4787 -2.1451 0.1149
H 2.9661 0.7217 0.1265
H 3.5412 -0.7951 -0.5387
H 2.9019 -0.7396 1.1004
17
Frame 48
H -1.7197 0.0416 1.3995
C -1.8309 -0.0173 0.3256
C -1.3023 1.2466 -0.2996
H -2.8785 -0.1386 0.0728
O -0.5581 2.0324 0.2374
H -1.6142 1.3872 -1.3331
C 1.4054 -0.6221 -0.4341
C 2.7940 -0.3654 0.0944
H 1.2327 -0.3207 -1.4539
C 0.4147 -1.1279 0.2689
C -1.0082 -1.2248 -0.2237
H 0.5761 -1.4181 1.2929
H -1.0396 -1.2197 -1.3086
H -1.4727 -2.1439 0.1136
H 2.9896 0.7027 0.1145
H 3.5465 -0.8268 -0.5373
H 2.9074 -0.7494 1.1010
17
Frame 49
H -1.7192 0.0437 1.3990
C -1.8291 -0.0171 0.3251
C -1.3042 1.2478 -0.3012
H -2.8764 -0.1412 0.0714
O -0.5826 2.0495 0.2428
H -1.5980 1.3742 -1.3420
C 1.4131 -0.6293 -0.4356
C 2.8040 -0.3818 0.0916
H 1.2432 -0.3338 -1.4577
C 0.4188 -1.1247 0.2699
C -1.0037 -1.2223 -0.2236
H 0.5784 -1.4094 1.2957
H -1.0340 -1.2168 -1.3085
H -1.4666 -2.1428 0.1126
H 3.0122 0.6838 0.1015
H 3.5513 -0.8578 -0.5352
H 2.9127 -0.7575 1.1019
17
Frame 50
H -1.7193 0.0459 1.3981
C -1.8271 -0.0169 0.3241
C -1.3055 1.2492 -0.3026
H -2.8739 -0.1433 0.0693
O -0.6074 2.0665 0.2485
H -1.5802 1.3620 -1.3502
C 1.4207 -0.6373 -0.4374
C 2.8136 -0.3978 0.0887
H 1.2535 -0.3488 -1.4619
C 0.4231 -1.1216 0.2710
C -0.9993 -1.2199 -0.2233
H 0.5804 -1.3997 1.2990
H -1.0283 -1.2144 -1.3083
H -1.4607 -2.1415 0.1120
H 3.0335 0.6657 0.0876
H 3.5565 -0.8885 -0.5326
H 2.9176 -0.7643 1.1028
17
Frame 51
H -1.7199 0.0481 1.3971
C -1.8251 -0.0165 0.3229
C -1.3059 1.2507 -0.3039
H -2.8715 -0.1450 0.0662
O -0.6324 2.0833 0.2546
H -1.5598 1.3500 -1.3581
C 1.4283 -0.6458 -0.4394
C 2.8229 -0.4133 0.0855
H 1.2641 -0.3656 -1.4667
C 0.4271 -1.1183 0.2722
C -0.9948 -1.2177 -0.2229
H 0.5825 -1.3887 1.3026
H -1.0228 -1.2127 -1.3079
H -1.4548 -2.1403 0.1121
H 3.0538 0.6476 0.0724
H 3.5613 -0.9185 -0.5291
H 2.9223 -0.7690 1.1039
17
Frame 52
H -1.7213 0.0502 1.3956
C -1.8230 -0.0160 0.3212
C -1.3057 1.2523 -0.3050
H -2.8687 -0.1460 0.0622
O -0.6575 2.0998 0.2609
H -1.5378 1.3389 -1.3654
C 1.4358 -0.6551 -0.4417
C 2.8318 -0.4282 0.0823
H 1.2743 -0.3843 -1.4719
C 0.4312 -1.1149 0.2735
C -0.9905 -1.2157 -0.2224
H 0.5842 -1.3762 1.3066
H -1.0172 -1.2116 -1.3075
H -1.4490 -2.1390 0.1125
H 3.0732 0.6303 0.0564
H 3.5660 -0.9481 -0.5253
H 2.9268 -0.7726 1.1050
17
Frame 53
H -1.7233 0.0523 1.3940
C -1.8210 -0.0154 0.3193
C -1.3048 1.2540 -0.3058
H -2.8660 -0.1468 0.0571
O -0.6827 2.1159 0.2674
H -1.5137 1.3282 -1.3719
C 1.4431 -0.6647 -0.4441
C 2.8404 -0.4427 0.0789
H 1.2847 -0.4045 -1.4775
C 0.4352 -1.1113 0.2748
C -0.9862 -1.2138 -0.2217
H 0.5859 -1.3625 1.3108
H -1.0118 -1.2111 -1.3068
H -1.4433 -2.1376 0.1137
H 3.0915 0.6130 0.0395
H 3.5707 -0.9769 -0.5208
H 2.9312 -0.7745 1.1061
17
Frame 54
H -1.7262 0.0543 1.3920
C -1.8190 -0.0147 0.3170
C -1.3033 1.2559 -0.3065
H -2.8630 -0.1470 0.0512
O -0.7080 2.1317 0.2741
H -1.4881 1.3184 -1.3778
C 1.4504 -0.6748 -0.4466
C 2.8488 -0.4567 0.0754
H 1.2947 -0.4261 -1.4833
C 0.4392 -1.1076 0.2762
C -0.9819 -1.2119 -0.2209
H 0.5876 -1.3477 1.3152
H -1.0063 -1.2110 -1.3062
H -1.4376 -2.1362 0.1152
H 3.1093 0.5961 0.0218
H 3.5752 -1.0057 -0.5160
H 2.9355 -0.7753 1.1071
17
Frame 55
H -1.7297 0.0562 1.3898
C -1.8171 -0.0139 0.3144
C -1.3013 1.2580 -0.3069
H -2.8601 -0.1471 0.0442
O -0.7333 2.1469 0.2808
H -1.4613 1.3095 -1.3828
C 1.4576 -0.6853 -0.4491
C 2.8570 -0.4705 0.0717
H 1.3047 -0.4489 -1.4891
C 0.4431 -1.1035 0.2777
C -0.9776 -1.2101 -0.2201
H 0.5892 -1.3318 1.3197
H -1.0009 -1.2114 -1.3053
H -1.4319 -2.1348 0.1173
H 3.1266 0.5790 0.0029
H 3.5796 -1.0340 -0.5103
H 2.9397 -0.7745 1.1081
17
Frame 56
H -1.7338 0.0580 1.3874
C -1.8151 -0.0130 0.3115
C -1.2990 1.2602 -0.3070
H -2.8570 -0.1467 0.0367
O -0.7588 2.1618 0.2875
H -1.4330 1.3013 -1.3869
C 1.4647 -0.6960 -0.4518
C 2.8650 -0.4840 0.0680
H 1.3145 -0.4729 -1.4951
C 0.4470 -1.0993 0.2792
C -0.9733 -1.2084 -0.2192
H 0.5907 -1.3146 1.3243
H -0.9954 -1.2121 -1.3044
H -1.4263 -2.1332 0.1196
H 3.1435 0.5622 -0.0163
H 3.5837 -1.0624 -0.5045
H 2.9438 -0.7731 1.1090
17
Frame 57
H -1.7386 0.0596 1.3848
C -1.8133 -0.0121 0.3085
C -1.2961 1.2625 -0.3068
H -2.8539 -0.1461 0.0282
O -0.7844 2.1763 0.2943
H -1.4033 1.2938 -1.3900
C 1.4718 -0.7071 -0.4544
C 2.8729 -0.4973 0.0641
H 1.3243 -0.4979 -1.5010
C 0.4509 -1.0947 0.2807
C -0.9690 -1.2065 -0.2181
H 0.5924 -1.2968 1.3287
H -0.9900 -1.2131 -1.3034
H -1.4205 -2.1316 0.1224
H 3.1600 0.5450 -0.0365
H 3.5879 -1.0903 -0.4978
H 2.9481 -0.7702 1.1097
17
Frame 58
H -1.7439 0.0611 1.3819
C -1.8115 -0.0110 0.3052
C -1.2932 1.2651 -0.3064
H -2.8507 -0.1453 0.0192
O -0.8100 2.1902 0.3009
H -1.3731 1.2873 -1.3922
C 1.4788 -0.7184 -0.4570
C 2.8808 -0.5105 0.0602
H 1.3337 -0.5235 -1.5067
C 0.4549 -1.0900 0.2822
C -0.9647 -1.2047 -0.2171
H 0.5941 -1.2778 1.3333
H -0.9846 -1.2143 -1.3024
H -1.4148 -2.1298 0.1253
H 3.1765 0.5277 -0.0574
H 3.5916 -1.1186 -0.4907
H 2.9523 -0.7667 1.1103
