22
Frame 1
H -1.6726 -1.5104 0.9694
C -2.0720 -0.9461 0.1309
C -2.4025 0.4764 0.5012
C -1.7282 1.3084 -0.2842
C -0.8918 0.5296 -1.2178
C -1.0679 -0.7655 -0.9778
H -2.9541 -1.4813 -0.2200
H -3.0887 0.7458 1.2817
H -1.7659 2.3817 -0.2563
H -0.2772 0.9646 -1.9804
H -0.6270 -1.5854 -1.5108
H 3.1645 -0.6150 -0.7365
C 2.0981 -0.4010 -0.6514
C 1.5106 -1.1708 0.5010
C 1.1837 -0.3302 1.4784
C 1.4233 1.0492 1.0268
C 1.8924 1.0247 -0.2163
H 1.6557 -0.6374 -1.6117
H 1.4532 -2.2425 0.5335
H 0.7845 -0.5937 2.4401
H 1.2158 1.9245 1.6133
H 2.1662 1.8743 -0.8131
22
Frame 2
H -1.6513 -1.4954 1.0061
C -2.0446 -0.9371 0.1611
C -2.3761 0.4890 0.5170
C -1.7048 1.3132 -0.2789
C -0.8668 0.5261 -1.2036
C -1.0381 -0.7668 -0.9471
H -2.9259 -1.4732 -0.1906
H -3.0620 0.7659 1.2953
H -1.7450 2.3867 -0.2636
H -0.2623 0.9542 -1.9781
H -0.6021 -1.5917 -1.4756
H 3.1373 -0.5964 -0.7530
C 2.0674 -0.3964 -0.6769
C 1.4865 -1.1768 0.4712
C 1.1746 -0.3460 1.4624
C 1.4014 1.0368 1.0192
C 1.8471 1.0243 -0.2332
H 1.6379 -0.6344 -1.6419
H 1.4333 -2.2491 0.4958
H 0.7892 -0.6197 2.4268
H 1.1971 1.9065 1.6146
H 2.1073 1.8803 -0.8271
22
Frame 3
H -1.6308 -1.4956 1.0297
C -2.0177 -0.9345 0.1840
C -2.3468 0.4927 0.5376
C -1.6787 1.3145 -0.2635
C -0.8411 0.5259 -1.1869
C -1.0096 -0.7670 -0.9237
H -2.9001 -1.4661 -0.1721
H -3.0299 0.7721 1.3174
H -1.7196 2.3881 -0.2513
H -0.2489 0.9516 -1.9715
H -0.5823 -1.5936 -1.4558
H 3.1078 -0.5870 -0.7610
C 2.0349 -0.3955 -0.6999
C 1.4542 -1.1781 0.4470
C 1.1628 -0.3500 1.4476
C 1.3841 1.0324 1.0059
C 1.8056 1.0233 -0.2552
H 1.6207 -0.6381 -1.6702
H 1.4007 -2.2503 0.4698
H 0.7901 -0.6268 2.4160
H 1.1872 1.9009 1.6058
H 2.0573 1.8813 -0.8498
22
Frame 4
H -1.6137 -1.4975 1.0523
C -1.9914 -0.9323 0.2057
C -2.3166 0.4961 0.5581
C -1.6517 1.3153 -0.2483
C -0.8155 0.5247 -1.1711
C -0.9807 -0.7681 -0.9006
H -2.8751 -1.4576 -0.1570
H -2.9967 0.7782 1.3397
H -1.6933 2.3888 -0.2393
H -0.2392 0.9477 -1.9684
H -0.5658 -1.5965 -1.4394
H 3.0775 -0.5765 -0.7691
C 2.0022 -0.3942 -0.7220
C 1.4217 -1.1783 0.4239
C 1.1536 -0.3534 1.4348
C 1.3693 1.0284 0.9943
C 1.7632 1.0225 -0.2765
H 1.6027 -0.6417 -1.6966
H 1.3680 -2.2505 0.4451
H 0.7949 -0.6332 2.4075
H 1.1812 1.8956 1.5988
H 2.0057 1.8824 -0.8721
22
Frame 5
H -1.5960 -1.5001 1.0745
C -1.9646 -0.9303 0.2274
C -2.2860 0.4993 0.5788
C -1.6251 1.3163 -0.2333
C -0.7903 0.5245 -1.1559
C -0.9516 -0.7688 -0.8779
H -2.8498 -1.4491 -0.1416
H -2.9620 0.7839 1.3630
H -1.6671 2.3899 -0.2269
H -0.2328 0.9445 -1.9679
H -0.5518 -1.5986 -1.4256
H 3.0484 -0.5659 -0.7748
C 1.9705 -0.3934 -0.7432
C 1.3886 -1.1788 0.4012
C 1.1445 -0.3563 1.4221
C 1.3548 1.0243 0.9828
C 1.7203 1.0212 -0.2977
H 1.5870 -0.6460 -1.7222
H 1.3346 -2.2511 0.4211
H 0.7993 -0.6390 2.3990
H 1.1751 1.8905 1.5914
H 1.9541 1.8832 -0.8942
22
Frame 6
H -1.5811 -1.5047 1.0952
C -1.9397 -0.9294 0.2480
C -2.2570 0.5010 0.5996
C -1.6001 1.3165 -0.2168
C -0.7649 0.5251 -1.1389
C -0.9230 -0.7696 -0.8553
H -2.8256 -1.4407 -0.1296
H -2.9288 0.7873 1.3869
H -1.6423 2.3903 -0.2114
H -0.2291 0.9423 -1.9663
H -0.5404 -1.5998 -1.4142
H 3.0202 -0.5572 -0.7786
C 1.9409 -0.3934 -0.7642
C 1.3551 -1.1778 0.3787
C 1.1369 -0.3568 1.4092
C 1.3433 1.0209 0.9704
C 1.6787 1.0193 -0.3198
H 1.5731 -0.6512 -1.7475
H 1.3009 -2.2499 0.3995
H 0.8045 -0.6412 2.3900
H 1.1731 1.8867 1.5823
H 1.9053 1.8824 -0.9172
22
Frame 7
H -1.5666 -1.5121 1.1140
C -1.9143 -0.9291 0.2678
C -2.2243 0.5022 0.6223
C -1.5725 1.3164 -0.1994
C -0.7400 0.5255 -1.1237
C -0.8946 -0.7712 -0.8338
H -2.8025 -1.4306 -0.1184
H -2.8900 0.7903 1.4142
H -1.6142 2.3902 -0.1942
H -0.2317 0.9388 -1.9701
H -0.5352 -1.6009 -1.4088
H 2.9944 -0.5471 -0.7792
C 1.9131 -0.3932 -0.7830
C 1.3205 -1.1764 0.3574
C 1.1284 -0.3560 1.3969
C 1.3309 1.0179 0.9582
C 1.6358 1.0175 -0.3419
H 1.5628 -0.6571 -1.7708
H 1.2672 -2.2487 0.3795
H 0.8079 -0.6420 2.3810
H 1.1690 1.8839 1.5718
H 1.8562 1.8818 -0.9398
22
Frame 8
H -1.5542 -1.5157 1.1351
C -1.8907 -0.9276 0.2883
C -2.1957 0.5050 0.6427
C -1.5490 1.3175 -0.1849
C -0.7154 0.5274 -1.1079
C -0.8657 -0.7726 -0.8101
H -2.7797 -1.4210 -0.1064
H -2.8564 0.7955 1.4378
H -1.5922 2.3913 -0.1816
H -0.2396 0.9347 -1.9759
H -0.5325 -1.6009 -1.4021
H 2.9707 -0.5365 -0.7806
C 1.8883 -0.3933 -0.8021
C 1.2879 -1.1758 0.3347
C 1.1239 -0.3568 1.3850
C 1.3212 1.0122 0.9480
C 1.5929 1.0143 -0.3629
H 1.5539 -0.6622 -1.7938
H 1.2391 -2.2482 0.3591
H 0.8170 -0.6456 2.3727
H 1.1682 1.8776 1.5646
H 1.8081 1.8808 -0.9598
22
Frame 9
H -1.5451 -1.5225 1.1542
C -1.8696 -0.9276 0.3075
C -2.1675 0.5062 0.6634
C -1.5259 1.3179 -0.1687
C -0.6906 0.5302 -1.0914
C -0.8376 -0.7752 -0.7865
H -2.7597 -1.4116 -0.0968
H -2.8223 0.7987 1.4628
H -1.5694 2.3918 -0.1651
H -0.2549 0.9298 -1.9837
H -0.5383 -1.5999 -1.4019
H 2.9499 -0.5264 -0.7786
C 1.8668 -0.3936 -0.8199
C 1.2546 -1.1741 0.3124
C 1.1204 -0.3540 1.3735
C 1.3139 1.0073 0.9377
C 1.5509 1.0110 -0.3852
H 1.5491 -0.6683 -1.8156
H 1.2133 -2.2469 0.3415
H 0.8266 -0.6449 2.3644
H 1.1702 1.8730 1.5560
H 1.7655 1.8791 -0.9800
22
Frame 10
H -1.5388 -1.5256 1.1757
C -1.8510 -0.9268 0.3273
C -2.1438 0.5087 0.6822
C -1.5079 1.3198 -0.1545
C -0.6664 0.5365 -1.0742
C -0.8091 -0.7778 -0.7604
H -2.7411 -1.4033 -0.0859
H -2.7938 0.8033 1.4849
H -1.5541 2.3936 -0.1514
H -0.2826 0.9242 -1.9955
H -0.5526 -1.5953 -1.4046
H 2.9347 -0.5160 -0.7755
C 1.8513 -0.3949 -0.8371
C 1.2235 -1.1739 0.2882
C 1.1205 -0.3513 1.3623
C 1.3092 0.9990 0.9296
C 1.5096 1.0057 -0.4077
H 1.5504 -0.6746 -1.8367
H 1.1972 -2.2470 0.3246
H 0.8406 -0.6453 2.3563
H 1.1750 1.8649 1.5499
H 1.7294 1.8761 -0.9975
22
Frame 11
H -1.5384 -1.5221 1.2022
C -1.8387 -0.9243 0.3487
C -2.1279 0.5141 0.6959
C -1.4960 1.3235 -0.1451
C -0.6424 0.5455 -1.0576
C -0.7823 -0.7842 -0.7299
H -2.7278 -1.3971 -0.0710
H -2.7756 0.8131 1.4990
H -1.5474 2.3973 -0.1449
H -0.3325 0.9112 -2.0164
H -0.5873 -1.5884 -1.4128
H 2.9277 -0.5016 -0.7676
C 1.8448 -0.3945 -0.8535
C 1.1956 -1.1757 0.2593
C 1.1286 -0.3489 1.3529
C 1.3095 0.9852 0.9283
C 1.4682 0.9998 -0.4298
H 1.5635 -0.6782 -1.8580
H 1.1985 -2.2491 0.3056
H 0.8680 -0.6499 2.3501
H 1.1888 1.8502 1.5527
H 1.7034 1.8742 -1.0082
22
Frame 12
H -1.5439 -1.5025 1.2406
C -1.8359 -0.9192 0.3740
C -2.1299 0.5245 0.6991
C -1.4971 1.3319 -0.1416
C -0.6185 0.5629 -1.0405
C -0.7583 -0.7964 -0.6922
H -2.7204 -1.4001 -0.0452
H -2.7853 0.8298 1.4941
H -1.5601 2.4052 -0.1481
H -0.4196 0.8885 -2.0445
H -0.6554 -1.5736 -1.4271
H 2.9355 -0.4832 -0.7523
C 1.8546 -0.3931 -0.8697
C 1.1728 -1.1830 0.2199
C 1.1486 -0.3477 1.3460
C 1.3179 0.9624 0.9371
C 1.4297 0.9925 -0.4544
H 1.5992 -0.6781 -1.8814
H 1.2281 -2.2552 0.2803
H 0.9167 -0.6625 2.3462
H 1.2198 1.8249 1.5692
H 1.7017 1.8722 -1.0095
