16
Frame 1
C -1.0891 -1.4992 0.3207
C -0.8207 -0.2089 -0.4524
C 0.6999 0.2769 -0.5824
C -1.0276 1.1015 0.3259
C 0.2306 1.5047 0.2165
H 0.7547 2.3741 0.5526
H -1.3230 -0.2276 -1.4120
H -1.8967 1.5243 0.7833
H 0.9680 0.5009 -1.6077
C 1.7757 -0.5820 0.0807
H 1.8825 -1.5354 -0.4263
H 1.5389 -0.7668 1.1203
H 2.7343 -0.0737 0.0408
H -0.7056 -2.3619 -0.2141
H -2.1578 -1.6374 0.4541
H -0.6320 -1.4675 1.3009
16
Frame 2
C -1.0854 -1.4895 0.3308
C -0.8189 -0.2092 -0.4598
C 0.7020 0.2791 -0.5748
C -1.0371 1.1031 0.3115
C 0.2256 1.4992 0.2323
H 0.7473 2.3630 0.5861
H -1.3131 -0.2424 -1.4230
H -1.9139 1.5285 0.7516
H 0.9685 0.5196 -1.5969
C 1.7811 -0.5899 0.0694
H 1.8738 -1.5404 -0.4458
H 1.5584 -0.7808 1.1109
H 2.7428 -0.0884 0.0187
H -0.6969 -2.3592 -0.1888
H -2.1539 -1.6295 0.4632
H -0.6313 -1.4397 1.3117
16
Frame 3
C -1.0831 -1.4813 0.3373
C -0.8165 -0.2095 -0.4668
C 0.7044 0.2813 -0.5672
C -1.0459 1.1034 0.2989
C 0.2199 1.4945 0.2473
H 0.7382 2.3535 0.6175
H -1.3028 -0.2544 -1.4336
H -1.9297 1.5302 0.7234
H 0.9693 0.5362 -1.5863
C 1.7874 -0.5957 0.0605
H 1.8374 -1.5611 -0.4326
H 1.5998 -0.7554 1.1143
H 2.7582 -0.1203 -0.0399
H -0.7028 -2.3585 -0.1758
H -2.1512 -1.6148 0.4793
H -0.6211 -1.4227 1.3141
16
Frame 4
C -1.0836 -1.4753 0.3409
C -0.8147 -0.2099 -0.4724
C 0.7066 0.2829 -0.5604
C -1.0529 1.1033 0.2893
C 0.2149 1.4901 0.2599
H 0.7300 2.3450 0.6434
H -1.2937 -0.2629 -1.4423
H -1.9422 1.5311 0.7010
H 0.9690 0.5495 -1.5771
C 1.7950 -0.5988 0.0536
H 1.7948 -1.5842 -0.4003
H 1.6533 -0.7112 1.1209
H 2.7730 -0.1575 -0.1117
H -0.7111 -2.3584 -0.1677
H -2.1516 -1.6019 0.4899
H -0.6151 -1.4114 1.3144
16
Frame 5
C -1.0860 -1.4703 0.3432
C -0.8133 -0.2105 -0.4772
C 0.7085 0.2840 -0.5543
C -1.0589 1.1028 0.2811
C 0.2104 1.4857 0.2712
H 0.7230 2.3369 0.6664
H -1.2856 -0.2697 -1.4501
H -1.9528 1.5316 0.6818
H 0.9679 0.5615 -1.5689
C 1.8037 -0.6003 0.0477
H 1.7541 -1.6053 -0.3578
H 1.7124 -0.6604 1.1249
H 2.7840 -0.1972 -0.1861
H -0.7192 -2.3585 -0.1606
H -2.1543 -1.5906 0.4957
H -0.6140 -1.4018 1.3150
16
Frame 6
C -1.0896 -1.4657 0.3451
C -0.8121 -0.2111 -0.4817
C 0.7104 0.2848 -0.5485
C -1.0643 1.1023 0.2737
C 0.2062 1.4811 0.2820
H 0.7165 2.3284 0.6881
H -1.2783 -0.2757 -1.4572
H -1.9622 1.5324 0.6637
H 0.9664 0.5729 -1.5609
C 1.8131 -0.6008 0.0419
H 1.7174 -1.6225 -0.3096
H 1.7751 -0.6075 1.1241
H 2.7906 -0.2384 -0.2596
H -0.7266 -2.3585 -0.1533
H -2.1583 -1.5808 0.4986
H -0.6166 -1.3928 1.3163
16
Frame 7
C -1.0940 -1.4611 0.3469
C -0.8113 -0.2119 -0.4862
C 0.7122 0.2854 -0.5428
C -1.0692 1.1018 0.2666
C 0.2023 1.4759 0.2927
H 0.7106 2.3193 0.7096
H -1.2714 -0.2816 -1.4641
H -1.9708 1.5333 0.6464
H 0.9646 0.5846 -1.5529
C 1.8231 -0.6007 0.0362
H 1.6857 -1.6356 -0.2574
H 1.8400 -0.5544 1.1182
H 2.7928 -0.2805 -0.3305
H -0.7341 -2.3585 -0.1454
H -2.1634 -1.5712 0.4997
H -0.6214 -1.3834 1.3180
16
Frame 8
C -1.0993 -1.4564 0.3488
C -0.8106 -0.2128 -0.4906
C 0.7139 0.2855 -0.5372
C -1.0740 1.1013 0.2592
C 0.1985 1.4700 0.3037
H 0.7051 2.3090 0.7315
H -1.2647 -0.2877 -1.4710
H -1.9789 1.5350 0.6282
H 0.9627 0.5965 -1.5446
C 1.8338 -0.5998 0.0301
H 1.6601 -1.6442 -0.2036
H 1.9057 -0.5024 1.1064
H 2.7912 -0.3221 -0.3982
H -0.7417 -2.3584 -0.1367
H -2.1694 -1.5615 0.5001
H -0.6282 -1.3735 1.3204
16
Frame 9
C -1.1057 -1.4514 0.3512
C -0.8105 -0.2140 -0.4953
C 0.7155 0.2851 -0.5313
C -1.0785 1.1011 0.2513
C 0.1949 1.4630 0.3152
H 0.7003 2.2967 0.7547
H -1.2583 -0.2943 -1.4780
H -1.9866 1.5378 0.6089
H 0.9602 0.6086 -1.5357
C 1.8456 -0.5980 0.0236
H 1.6424 -1.6486 -0.1502
H 1.9714 -0.4524 1.0897
H 2.7863 -0.3609 -0.4616
H -0.7502 -2.3582 -0.1268
H -2.1766 -1.5514 0.5004
H -0.6366 -1.3627 1.3233
16
Frame 10
C -1.1131 -1.4459 0.3541
C -0.8113 -0.2153 -0.5001
C 0.7167 0.2833 -0.5252
C -1.0829 1.1016 0.2424
C 0.1918 1.4543 0.3275
H 0.6968 2.2814 0.7799
H -1.2528 -0.3015 -1.4852
H -1.9935 1.5429 0.5875
H 0.9571 0.6205 -1.5262
C 1.8588 -0.5949 0.0166
H 1.6351 -1.6490 -0.1002
H 2.0350 -0.4051 1.0685
H 2.7800 -0.3934 -0.5195
H -0.7594 -2.3575 -0.1162
H -2.1847 -1.5412 0.5015
H -0.6459 -1.3508 1.3266
16
Frame 11
C -1.1212 -1.4401 0.3573
C -0.8142 -0.2164 -0.5051
C 0.7170 0.2795 -0.5188
C -1.0869 1.1036 0.2325
C 0.1894 1.4432 0.3406
H 0.6956 2.2616 0.8069
H -1.2495 -0.3090 -1.4923
H -1.9990 1.5526 0.5634
H 0.9525 0.6307 -1.5160
C 1.8738 -0.5900 0.0094
H 1.6408 -1.6465 -0.0561
H 2.0938 -0.3609 1.0453
H 2.7738 -0.4154 -0.5700
H -0.7683 -2.3557 -0.1059
H -2.1930 -1.5325 0.5046
H -0.6544 -1.3381 1.3294
16
Frame 12
C -1.1290 -1.4343 0.3604
C -0.8206 -0.2168 -0.5101
C 0.7159 0.2729 -0.5125
C -1.0904 1.1079 0.2218
C 0.1882 1.4295 0.3538
H 0.6981 2.2368 0.8355
H -1.2505 -0.3158 -1.4990
H -2.0021 1.5684 0.5376
H 0.9463 0.6379 -1.5060
C 1.8906 -0.5835 0.0031
H 1.6606 -1.6423 -0.0203
H 2.1443 -0.3205 1.0231
H 2.7703 -0.4239 -0.6109
H -0.7748 -2.3518 -0.0980
H -2.2002 -1.5280 0.5108
H -0.6597 -1.3250 1.3305
16
Frame 13
C -1.1352 -1.4293 0.3630
C -0.8314 -0.2160 -0.5147
C 0.7135 0.2638 -0.5067
C -1.0934 1.1149 0.2109
C 0.1880 1.4140 0.3660
H 0.7037 2.2082 0.8629
H -1.2581 -0.3207 -1.5044
H -2.0020 1.5912 0.5110
H 0.9394 0.6413 -1.4966
C 1.9084 -0.5761 -0.0016
H 1.6913 -1.6378 0.0072
H 2.1848 -0.2846 1.0049
H 2.7703 -0.4205 -0.6412
H -0.7766 -2.3459 -0.0942
H -2.2046 -1.5300 0.5205
H -0.6599 -1.3128 1.3293
16
Frame 14
C -1.1395 -1.4258 0.3650
C -0.8469 -0.2137 -0.5189
C 0.7111 0.2540 -0.5020
C -1.0957 1.1237 0.2004
C 0.1884 1.3978 0.3766
H 0.7108 2.1784 0.8882
H -1.2734 -0.3228 -1.5081
H -1.9991 1.6187 0.4855
H 0.9333 0.6423 -1.4885
C 1.9267 -0.5690 -0.0042
H 1.7269 -1.6336 0.0283
H 2.2165 -0.2542 0.9916
H 2.7744 -0.4109 -0.6620
H -0.7729 -2.3379 -0.0950
H -2.2057 -1.5404 0.5338
H -0.6547 -1.3020 1.3256
16
Frame 15
C -1.1422 -1.4238 0.3666
C -0.8671 -0.2102 -0.5225
C 0.7106 0.2454 -0.4983
C -1.0973 1.1329 0.1903
C 0.1890 1.3820 0.3853
H 0.7170 2.1490 0.9115
H -1.2973 -0.3227 -1.5096
H -1.9935 1.6484 0.4610
H 0.9296 0.6426 -1.4818
C 1.9453 -0.5627 -0.0049
H 1.7612 -1.6294 0.0443
H 2.2422 -0.2301 0.9831
H 2.7823 -0.4006 -0.6751
H -0.7649 -2.3283 -0.0997
H -2.2037 -1.5579 0.5498
H -0.6455 -1.2926 1.3200
16
Frame 16
C -1.1439 -1.4231 0.3681
C -0.8916 -0.2061 -0.5251
C 0.7132 0.2393 -0.4953
C -1.0982 1.1413 0.1805
C 0.1896 1.3670 0.3920
H 0.7212 2.1216 0.9326
H -1.3297 -0.3213 -1.5085
H -1.9860 1.6782 0.4371
H 0.9287 0.6433 -1.4767
C 1.9634 -0.5572 -0.0043
H 1.7898 -1.6252 0.0560
H 2.2638 -0.2129 0.9788
H 2.7934 -0.3927 -0.6826
H -0.7543 -2.3178 -0.1071
H -2.1992 -1.5802 0.5672
H -0.6343 -1.2844 1.3135
16
Frame 17
C -1.1446 -1.4231 0.3693
C -0.9193 -0.2021 -0.5267
C 0.7196 0.2361 -0.4924
C -1.0983 1.1481 0.1709
C 0.1904 1.3531 0.3971
H 0.7230 2.0964 0.9523
H -1.3694 -0.3196 -1.5044
H -1.9769 1.7063 0.4133
H 0.9296 0.6440 -1.4730
C 1.9803 -0.5525 -0.0029
H 1.8113 -1.6208 0.0639
H 2.2828 -0.2016 0.9773
H 2.8063 -0.3880 -0.6863
H -0.7428 -2.3069 -0.1161
H -2.1930 -1.6047 0.5843
H -0.6225 -1.2772 1.3065
16
Frame 18
C -1.1446 -1.4235 0.3700
C -0.9490 -0.1984 -0.5272
C 0.7292 0.2355 -0.4891
C -1.0979 1.1531 0.1615
C 0.1914 1.3403 0.4007
H 0.7229 2.0732 0.9710
H -1.4142 -0.3181 -1.4978
H -1.9669 1.7322 0.3893
H 0.9309 0.6436 -1.4709
C 1.9956 -0.5482 -0.0013
H 1.8259 -1.6163 0.0689
H 2.2997 -0.1952 0.9778
H 2.8195 -0.3862 -0.6876
H -0.7315 -2.2963 -0.1257
H -2.1856 -1.6289 0.5997
H -0.6112 -1.2707 1.2995
16
Frame 19
C -1.1439 -1.4240 0.3702
C -0.9797 -0.1950 -0.5267
C 0.7414 0.2368 -0.4851
C -1.0971 1.1564 0.1523
C 0.1926 1.3285 0.4033
H 0.7214 2.0511 0.9892
H -1.4623 -0.3167 -1.4887
H -1.9564 1.7559 0.3647
H 0.9308 0.6407 -1.4705
C 2.0091 -0.5441 0.0004
H 1.8354 -1.6116 0.0718
H 2.3152 -0.1919 0.9793
H 2.8324 -0.3862 -0.6877
H -0.7211 -2.2862 -0.1354
H -2.1776 -1.6513 0.6130
H -0.6009 -1.2649 1.2929
16
Frame 20
C -1.1426 -1.4244 0.3700
C -1.0106 -0.1918 -0.5253
C 0.7554 0.2397 -0.4804
C -1.0961 1.1583 0.1431
C 0.1942 1.3174 0.4049
H 0.7191 2.0296 1.0075
H -1.5127 -0.3155 -1.4773
H -1.9456 1.7775 0.3390
H 0.9277 0.6342 -1.4717
C 2.0210 -0.5401 0.0019
H 1.8407 -1.6068 0.0730
H 2.3292 -0.1911 0.9815
H 2.8446 -0.3875 -0.6872
H -0.7115 -2.2771 -0.1446
H -2.1693 -1.6715 0.6239
H -0.5917 -1.2596 1.2866
16
Frame 21
C -1.1407 -1.4247 0.3692
C -1.0414 -0.1886 -0.5232
C 0.7706 0.2439 -0.4749
C -1.0952 1.1589 0.1339
C 0.1961 1.3069 0.4060
H 0.7163 2.0080 1.0259
H -1.5644 -0.3142 -1.4640
H -1.9347 1.7973 0.3119
H 0.9207 0.6232 -1.4745
C 2.0316 -0.5362 0.0033
H 1.8430 -1.6019 0.0731
H 2.3422 -0.1918 0.9839
H 2.8558 -0.3898 -0.6864
H -0.7028 -2.2689 -0.1533
H -2.1611 -1.6892 0.6325
H -0.5835 -1.2547 1.2807
16
Frame 22
C -1.1382 -1.4247 0.3679
C -1.0717 -0.1852 -0.5204
C 0.7866 0.2492 -0.4687
C -1.0944 1.1584 0.1248
C 0.1986 1.2969 0.4064
H 0.7133 1.9860 1.0447
H -1.6164 -0.3128 -1.4489
H -1.9237 1.8156 0.2835
H 0.9092 0.6071 -1.4784
C 2.0410 -0.5323 0.0045
H 1.8431 -1.5969 0.0724
H 2.3541 -0.1936 0.9864
H 2.8662 -0.3927 -0.6855
H -0.6949 -2.2619 -0.1612
H -2.1531 -1.7044 0.6389
H -0.5762 -1.2503 1.2752
16
Frame 23
C -1.1353 -1.4247 0.3661
C -1.1013 -0.1817 -0.5171
C 0.8030 0.2555 -0.4619
C -1.0939 1.1569 0.1156
C 0.2016 1.2872 0.4065
H 0.7103 1.9634 1.0637
H -1.6682 -0.3111 -1.4323
H -1.9128 1.8324 0.2536
H 0.8929 0.5857 -1.4829
C 2.0495 -0.5286 0.0056
H 1.8415 -1.5919 0.0711
H 2.3651 -0.1962 0.9890
H 2.8758 -0.3960 -0.6847
H -0.6876 -2.2561 -0.1683
H -2.1454 -1.7171 0.6434
H -0.5698 -1.2464 1.2702
16
Frame 24
C -1.1321 -1.4245 0.3640
C -1.1300 -0.1778 -0.5132
C 0.8196 0.2626 -0.4546
C -1.0938 1.1547 0.1063
C 0.2052 1.2777 0.4062
H 0.7074 1.9401 1.0829
H -1.7192 -0.3090 -1.4142
H -1.9019 1.8479 0.2225
H 0.8721 0.5590 -1.4868
C 2.0572 -0.5249 0.0066
H 1.8387 -1.5868 0.0693
H 2.3752 -0.1992 0.9914
H 2.8845 -0.3996 -0.6839
H -0.6810 -2.2514 -0.1746
H -2.1381 -1.7277 0.6462
H -0.5641 -1.2428 1.2655
16
Frame 25
C -1.1286 -1.4243 0.3616
C -1.1579 -0.1736 -0.5090
C 0.8360 0.2704 -0.4470
C -1.0944 1.1517 0.0970
C 0.2095 1.2685 0.4056
H 0.7045 1.9161 1.1020
H -1.7692 -0.3066 -1.3950
H -1.8910 1.8621 0.1903
H 0.8474 0.5274 -1.4895
C 2.0642 -0.5213 0.0075
H 1.8351 -1.5818 0.0672
H 2.3848 -0.2025 0.9938
H 2.8925 -0.4034 -0.6834
H -0.6748 -2.2476 -0.1803
H -2.1313 -1.7363 0.6476
H -0.5589 -1.2396 1.2610
16
Frame 26
C -1.1249 -1.4240 0.3588
C -1.1850 -0.1691 -0.5044
C 0.8523 0.2788 -0.4394
C -1.0955 1.1481 0.0877
C 0.2144 1.2593 0.4048
H 0.7017 1.8915 1.1210
H -1.8180 -0.3038 -1.3746
H -1.8801 1.8752 0.1572
H 0.8199 0.4917 -1.4899
C 2.0709 -0.5178 0.0083
H 1.8309 -1.5767 0.0649
H 2.3940 -0.2060 0.9960
H 2.9000 -0.4072 -0.6829
H -0.6690 -2.2446 -0.1855
H -2.1248 -1.7433 0.6478
H -0.5542 -1.2366 1.2567
16
Frame 27
C -1.1212 -1.4236 0.3558
C -1.2115 -0.1643 -0.4994
C 0.8682 0.2875 -0.4317
C -1.0971 1.1441 0.0782
C 0.2199 1.2503 0.4039
H 0.6989 1.8665 1.1398
H -1.8658 -0.3005 -1.3532
H -1.8689 1.8874 0.1234
H 0.7903 0.4526 -1.4874
C 2.0773 -0.5144 0.0092
H 1.8264 -1.5715 0.0624
H 2.4030 -0.2095 0.9980
H 2.9071 -0.4110 -0.6826
H -0.6635 -2.2421 -0.1905
H -2.1186 -1.7491 0.6473
H -0.5497 -1.2339 1.2524
16
Frame 28
C -1.1138 -1.4227 0.3490
C -1.2634 -0.1544 -0.4883
C 0.8987 0.3053 -0.4168
C -1.1018 1.1353 0.0587
C 0.2322 1.2326 0.4019
H 0.6925 1.8154 1.1763
H -1.9596 -0.2924 -1.3068
H -1.8455 1.9089 0.0543
H 0.7320 0.3710 -1.4722
C 2.0903 -0.5076 0.0110
H 1.8174 -1.5606 0.0571
H 2.4217 -0.2167 1.0017
H 2.9207 -0.4185 -0.6822
H -0.6525 -2.2368 -0.2010
H -2.1064 -1.7593 0.6451
H -0.5409 -1.2286 1.2433
16
Frame 29
C -1.1103 -1.4221 0.3452
C -1.2892 -0.1494 -0.4822
C 0.9132 0.3139 -0.4099
C -1.1045 1.1309 0.0487
C 0.2388 1.2239 0.4009
H 0.6886 1.7897 1.1939
H -2.0060 -0.2875 -1.2816
H -1.8329 1.9186 0.0191
H 0.7044 0.3295 -1.4596
C 2.0972 -0.5042 0.0121
H 1.8133 -1.5547 0.0545
H 2.4318 -0.2202 1.0034
H 2.9276 -0.4220 -0.6820
H -0.6469 -2.2335 -0.2072
H -2.1000 -1.7646 0.6441
H -0.5363 -1.2260 1.2381
16
Frame 30
C -1.1071 -1.4215 0.3411
C -1.3152 -0.1447 -0.4755
C 0.9273 0.3220 -0.4032
C -1.1072 1.1268 0.0384
C 0.2454 1.2154 0.4000
H 0.6841 1.7642 1.2110
H -2.0527 -0.2819 -1.2551
H -1.8198 1.9278 -0.0162
H 0.6797 0.2896 -1.4443
C 2.1047 -0.5008 0.0133
H 1.8099 -1.5487 0.0519
H 2.4428 -0.2236 1.0052
H 2.9348 -0.4252 -0.6817
H -0.6412 -2.2291 -0.2145
H -2.0933 -1.7709 0.6435
H -0.5314 -1.2234 1.2323
16
Frame 31
C -1.1044 -1.4207 0.3367
C -1.3417 -0.1402 -0.4683
C 0.9410 0.3294 -0.3970
C -1.1098 1.1230 0.0277
C 0.2518 1.2071 0.3993
H 0.6787 1.7391 1.2274
H -2.0998 -0.2756 -1.2270
H -1.8059 1.9364 -0.0514
H 0.6586 0.2521 -1.4270
C 2.1129 -0.4973 0.0147
H 1.8076 -1.5425 0.0495
H 2.4548 -0.2268 1.0068
H 2.9425 -0.4280 -0.6815
H -0.6352 -2.2233 -0.2233
H -2.0860 -1.7785 0.6434
H -0.5261 -1.2206 1.2256
16
Frame 32
C -1.1021 -1.4198 0.3320
C -1.3686 -0.1361 -0.4603
C 0.9542 0.3358 -0.3912
C -1.1121 1.1196 0.0168
C 0.2578 1.1989 0.3987
H 0.6725 1.7148 1.2431
H -2.1471 -0.2687 -1.1973
H -1.7914 1.9446 -0.0861
H 0.6416 0.2177 -1.4087
C 2.1220 -0.4938 0.0163
H 1.8069 -1.5362 0.0477
H 2.4679 -0.2294 1.0085
H 2.9507 -0.4303 -0.6813
H -0.6291 -2.2159 -0.2339
H -2.0779 -1.7881 0.6440
H -0.5204 -1.2177 1.2180
16
Frame 33
C -1.1004 -1.4188 0.3269
C -1.3960 -0.1323 -0.4516
C 0.9670 0.3411 -0.3858
C -1.1141 1.1168 0.0056
C 0.2632 1.1909 0.3983
H 0.6653 1.6916 1.2577
H -2.1946 -0.2613 -1.1663
H -1.7764 1.9523 -0.1199
H 0.6290 0.1871 -1.3905
C 2.1320 -0.4902 0.0181
H 1.8084 -1.5301 0.0465
H 2.4821 -0.2313 1.0102
H 2.9596 -0.4319 -0.6811
H -0.6229 -2.2067 -0.2465
H -2.0692 -1.7997 0.6452
H -0.5142 -1.2147 1.2093
16
Frame 34
C -1.0996 -1.4176 0.3214
C -1.4236 -0.1287 -0.4421
C 0.9792 0.3452 -0.3808
C -1.1155 1.1146 -0.0060
C 0.2678 1.1831 0.3978
H 0.6571 1.6699 1.2711
H -2.2418 -0.2534 -1.1340
H -1.7612 1.9597 -0.1524
H 0.6208 0.1605 -1.3733
C 2.1431 -0.4866 0.0202
H 1.8125 -1.5244 0.0463
H 2.4972 -0.2321 1.0118
H 2.9692 -0.4324 -0.6809
H -0.6169 -2.1954 -0.2612
H -2.0597 -1.8134 0.6468
H -0.5076 -1.2118 1.1996
16
Frame 35
C -1.0995 -1.4163 0.3157
C -1.4513 -0.1253 -0.4317
C 0.9909 0.3481 -0.3762
C -1.1165 1.1129 -0.0177
C 0.2718 1.1754 0.3973
H 0.6481 1.6498 1.2832
H -2.2883 -0.2450 -1.1007
H -1.7459 1.9667 -0.1832
H 0.6169 0.1378 -1.3579
C 2.1552 -0.4829 0.0226
H 1.8197 -1.5191 0.0471
H 2.5132 -0.2316 1.0134
H 2.9795 -0.4316 -0.6808
H -0.6114 -2.1822 -0.2781
H -2.0497 -1.8292 0.6485
H -0.5009 -1.2091 1.1889
16
Frame 36
C -1.1004 -1.4150 0.3096
C -1.4789 -0.1219 -0.4203
C 1.0020 0.3497 -0.3719
C -1.1171 1.1115 -0.0295
C 0.2749 1.1677 0.3966
H 0.6384 1.6313 1.2936
H -2.3337 -0.2362 -1.0666
H -1.7309 1.9733 -0.2120
H 0.6167 0.1187 -1.3448
C 2.1683 -0.4791 0.0252
H 1.8301 -1.5144 0.0492
H 2.5300 -0.2294 1.0151
H 2.9905 -0.4294 -0.6805
H -0.6066 -2.1671 -0.2969
H -2.0393 -1.8465 0.6500
H -0.4943 -1.2070 1.1774
16
Frame 37
C -1.1022 -1.4137 0.3033
C -1.5061 -0.1184 -0.4081
C 1.0126 0.3500 -0.3679
C -1.1175 1.1104 -0.0412
C 0.2774 1.1599 0.3955
H 0.6283 1.6145 1.3023
H -2.3777 -0.2270 -1.0320
H -1.7163 1.9794 -0.2386
H 0.6198 0.1025 -1.3341
C 2.1824 -0.4750 0.0281
H 1.8439 -1.5102 0.0525
H 2.5474 -0.2254 1.0167
H 3.0022 -0.4255 -0.6803
H -0.6029 -2.1502 -0.3177
H -2.0288 -1.8650 0.6507
H -0.4881 -1.2057 1.1653
16
Frame 38
C -1.1051 -1.4123 0.2967
C -1.5327 -0.1148 -0.3952
C 1.0227 0.3493 -0.3642
C -1.1176 1.1095 -0.0528
C 0.2793 1.1521 0.3939
H 0.6179 1.5991 1.3092
H -2.4200 -0.2172 -0.9967
H -1.7025 1.9851 -0.2628
H 0.6256 0.0884 -1.3255
C 2.1973 -0.4706 0.0313
H 1.8610 -1.5064 0.0570
H 2.5652 -0.2193 1.0183
H 3.0146 -0.4198 -0.6798
H -0.6006 -2.1319 -0.3398
H -2.0188 -1.8841 0.6502
H -0.4826 -1.2053 1.1528
16
Frame 39
C -1.1090 -1.4110 0.2899
C -1.5586 -0.1108 -0.3815
C 1.0323 0.3473 -0.3609
C -1.1176 1.1086 -0.0638
C 0.2808 1.1441 0.3917
H 0.6077 1.5849 1.3145
H -2.4605 -0.2069 -0.9614
H -1.6891 1.9902 -0.2849
H 0.6335 0.0756 -1.3189
C 2.2129 -0.4657 0.0348
H 1.8813 -1.5029 0.0627
H 2.5833 -0.2111 1.0201
H 3.0276 -0.4123 -0.6790
H -0.6001 -2.1125 -0.3632
H -2.0096 -1.9033 0.6483
H -0.4780 -1.2063 1.1403
16
Frame 40
C -1.1141 -1.4098 0.2829
C -1.5834 -0.1066 -0.3673
C 1.0416 0.3443 -0.3580
C -1.1175 1.1077 -0.0743
C 0.2819 1.1359 0.3888
H 0.5979 1.5719 1.3178
H -2.4991 -0.1960 -0.9260
H -1.6768 1.9950 -0.3046
H 0.6430 0.0635 -1.3140
C 2.2293 -0.4601 0.0387
H 1.9045 -1.4994 0.0696
H 2.6013 -0.2005 1.0220
H 3.0413 -0.4028 -0.6779
H -0.6016 -2.0924 -0.3872
H -2.0017 -1.9222 0.6446
H -0.4747 -1.2086 1.1278
16
Frame 41
C -1.1204 -1.4087 0.2757
C -1.6073 -0.1021 -0.3527
C 1.0505 0.3403 -0.3556
C -1.1175 1.1067 -0.0840
C 0.2828 1.1275 0.3851
H 0.5891 1.5599 1.3194
H -2.5357 -0.1845 -0.8906
H -1.6651 1.9991 -0.3219
H 0.6536 0.0512 -1.3103
C 2.2462 -0.4537 0.0428
H 1.9305 -1.4956 0.0777
H 2.6193 -0.1875 1.0240
H 3.0557 -0.3915 -0.6763
H -0.6053 -2.0721 -0.4116
H -1.9956 -1.9403 0.6391
H -0.4729 -1.2124 1.1156
16
Frame 42
C -1.1281 -1.4078 0.2683
C -1.6300 -0.0974 -0.3381
C 1.0590 0.3353 -0.3537
C -1.1174 1.1055 -0.0927
C 0.2838 1.1189 0.3807
H 0.5813 1.5489 1.3191
H -2.5704 -0.1723 -0.8557
H -1.6542 2.0029 -0.3367
H 0.6650 0.0383 -1.3076
C 2.2638 -0.4463 0.0473
H 1.9590 -1.4913 0.0869
H 2.6368 -0.1720 1.0263
H 3.0707 -0.3783 -0.6741
H -0.6112 -2.0520 -0.4358
H -1.9919 -1.9573 0.6319
H -0.4728 -1.2178 1.1037
16
Frame 43
C -1.1372 -1.4072 0.2609
C -1.6515 -0.0925 -0.3235
C 1.0673 0.3294 -0.3524
C -1.1172 1.1041 -0.1004
C 0.2849 1.1100 0.3757
H 0.5753 1.5391 1.3170
H -2.6029 -0.1595 -0.8214
H -1.6441 2.0063 -0.3487
H 0.6769 0.0245 -1.3057
C 2.2817 -0.4379 0.0521
H 1.9899 -1.4863 0.0973
H 2.6536 -0.1540 1.0287
H 3.0864 -0.3633 -0.6712
H -0.6197 -2.0327 -0.4595
H -1.9907 -1.9728 0.6232
H -0.4747 -1.2247 1.0923
16
Frame 44
C -1.1477 -1.4070 0.2535
C -1.6718 -0.0874 -0.3092
C 1.0753 0.3226 -0.3518
C -1.1170 1.1024 -0.1067
C 0.2862 1.1010 0.3700
H 0.5708 1.5303 1.3132
H -2.6332 -0.1459 -0.7883
H -1.6345 2.0093 -0.3579
H 0.6889 0.0096 -1.3045
C 2.3000 -0.4284 0.0571
H 2.0229 -1.4804 0.1086
H 2.6696 -0.1334 1.0314
H 3.1027 -0.3465 -0.6678
H -0.6306 -2.0147 -0.4822
H -1.9925 -1.9867 0.6132
H -0.4784 -1.2331 1.0813
16
Frame 45
C -1.1597 -1.4072 0.2461
C -1.6906 -0.0823 -0.2956
C 1.0830 0.3150 -0.3517
C -1.1167 1.1005 -0.1118
C 0.2878 1.0918 0.3638
H 0.5685 1.5229 1.3077
H -2.6613 -0.1318 -0.7564
H -1.6256 2.0120 -0.3643
H 0.7008 -0.0068 -1.3035
C 2.3185 -0.4177 0.0623
H 2.0576 -1.4734 0.1208
H 2.6846 -0.1104 1.0340
H 3.1193 -0.3280 -0.6638
H -0.6440 -1.9985 -0.5039
H -1.9974 -1.9987 0.6026
H -0.4840 -1.2428 1.0708
16
Frame 46
C -1.1732 -1.4079 0.2388
C -1.7081 -0.0773 -0.2827
C 1.0903 0.3068 -0.3522
C -1.1162 1.0984 -0.1156
C 0.2898 1.0826 0.3573
H 0.5682 1.5168 1.3007
H -2.6871 -0.1170 -0.7265
H -1.6171 2.0144 -0.3680
H 0.7125 -0.0246 -1.3025
C 2.3371 -0.4060 0.0675
H 2.0937 -1.4653 0.1338
H 2.6986 -0.0852 1.0367
H 3.1362 -0.3080 -0.6594
H -0.6600 -1.9843 -0.5242
H -2.0053 -2.0087 0.5917
H -0.4913 -1.2536 1.0606
16
Frame 47
C -1.1879 -1.4089 0.2317
C -1.7243 -0.0723 -0.2707
C 1.0975 0.2980 -0.3529
C -1.1154 1.0961 -0.1183
C 0.2921 1.0735 0.3506
H 0.5697 1.5121 1.2923
H -2.7107 -0.1018 -0.6981
H -1.6089 2.0165 -0.3692
H 0.7236 -0.0435 -1.3015
C 2.3555 -0.3932 0.0727
H 2.1310 -1.4559 0.1474
H 2.7114 -0.0580 1.0391
H 3.1530 -0.2865 -0.6549
H -0.6785 -1.9728 -0.5431
H -2.0164 -2.0166 0.5811
H -0.5000 -1.2655 1.0506
16
Frame 48
C -1.2039 -1.4104 0.2249
C -1.7392 -0.0675 -0.2596
C 1.1044 0.2887 -0.3539
C -1.1144 1.0935 -0.1198
C 0.2948 1.0644 0.3438
H 0.5729 1.5087 1.2831
H -2.7322 -0.0863 -0.6724
H -1.6008 2.0185 -0.3684
H 0.7343 -0.0639 -1.3001
C 2.3739 -0.3794 0.0776
H 2.1691 -1.4454 0.1614
H 2.7234 -0.0294 1.0410
H 3.1696 -0.2638 -0.6506
H -0.6993 -1.9635 -0.5606
H -2.0301 -2.0226 0.5713
H -0.5100 -1.2780 1.0407
16
Frame 49
C -1.2209 -1.4122 0.2183
C -1.7529 -0.0629 -0.2496
C 1.1110 0.2790 -0.3549
C -1.1131 1.0907 -0.1204
C 0.2979 1.0554 0.3372
H 0.5775 1.5066 1.2728
H -2.7516 -0.0706 -0.6487
H -1.5929 2.0200 -0.3660
H 0.7443 -0.0853 -1.2980
C 2.3920 -0.3649 0.0823
H 2.2078 -1.4338 0.1755
H 2.7347 0.0005 1.0425
H 3.1857 -0.2401 -0.6467
H -0.7227 -1.9570 -0.5772
H -2.0459 -2.0266 0.5628
H -0.5205 -1.2912 1.0306
16
Frame 50
C -1.2388 -1.4144 0.2119
C -1.7656 -0.0584 -0.2406
C 1.1174 0.2691 -0.3557
C -1.1115 1.0877 -0.1204
C 0.3011 1.0466 0.3307
H 0.5834 1.5059 1.2619
H -2.7691 -0.0548 -0.6271
H -1.5849 2.0214 -0.3622
H 0.7538 -0.1077 -1.2952
C 2.4099 -0.3498 0.0866
H 2.2469 -1.4210 0.1896
H 2.7456 0.0314 1.0433
H 3.2011 -0.2156 -0.6435
H -0.7484 -1.9525 -0.5928
H -2.0641 -2.0287 0.5556
H -0.5317 -1.3046 1.0200
16
Frame 51
C -1.2574 -1.4167 0.2058
C -1.7773 -0.0541 -0.2325
C 1.1237 0.2588 -0.3562
C -1.1097 1.0845 -0.1197
C 0.3046 1.0380 0.3246
H 0.5900 1.5065 1.2504
H -2.7850 -0.0388 -0.6077
H -1.5768 2.0225 -0.3576
H 0.7626 -0.1309 -1.2914
C 2.4275 -0.3340 0.0905
H 2.2861 -1.4071 0.2035
H 2.7561 0.0628 1.0432
H 3.2157 -0.1904 -0.6411
H -0.7764 -1.9503 -0.6075
H -2.0836 -2.0293 0.5503
H -0.5429 -1.3185 1.0093
16
Frame 52
C -1.2767 -1.4193 0.1999
C -1.7882 -0.0501 -0.2252
C 1.1299 0.2483 -0.3563
C -1.1076 1.0812 -0.1187
C 0.3082 1.0297 0.3189
H 0.5972 1.5082 1.2385
H -2.7993 -0.0231 -0.5902
H -1.5686 2.0233 -0.3524
H 0.7710 -0.1550 -1.2865
C 2.4449 -0.3179 0.0939
H 2.3255 -1.3925 0.2173
H 2.7666 0.0947 1.0424
H 3.2294 -0.1649 -0.6399
H -0.8067 -1.9500 -0.6218
H -2.1045 -2.0283 0.5466
H -0.5541 -1.3325 0.9974
16
Frame 53
C -1.2964 -1.4219 0.1941
C -1.7983 -0.0462 -0.2188
C 1.1359 0.2378 -0.3557
C -1.1052 1.0776 -0.1173
C 0.3120 1.0215 0.3135
H 0.6049 1.5109 1.2263
H -2.8124 -0.0074 -0.5747
H -1.5603 2.0237 -0.3469
H 0.7788 -0.1797 -1.2805
C 2.4621 -0.3014 0.0968
H 2.3649 -1.3767 0.2307
H 2.7770 0.1270 1.0405
H 3.2421 -0.1392 -0.6398
H -0.8390 -1.9512 -0.6356
H -2.1262 -2.0259 0.5448
H -0.5650 -1.3465 0.9850
16
Frame 54
C -1.3166 -1.4246 0.1885
C -1.8079 -0.0425 -0.2131
C 1.1418 0.2270 -0.3546
C -1.1027 1.0739 -0.1157
C 0.3158 1.0136 0.3085
H 0.6129 1.5148 1.2138
H -2.8243 0.0083 -0.5607
H -1.5518 2.0240 -0.3412
H 0.7864 -0.2051 -1.2732
C 2.4789 -0.2847 0.0992
H 2.4041 -1.3604 0.2437
H 2.7878 0.1593 1.0378
H 3.2537 -0.1133 -0.6409
H -0.8734 -1.9538 -0.6489
H -2.1484 -2.0223 0.5449
H -0.5756 -1.3606 0.9715
16
Frame 55
C -1.3370 -1.4274 0.1830
C -1.8169 -0.0390 -0.2080
C 1.1476 0.2161 -0.3528
C -1.1000 1.0700 -0.1140
C 0.3197 1.0059 0.3040
H 0.6209 1.5194 1.2010
H -2.8351 0.0237 -0.5482
H -1.5432 2.0240 -0.3355
H 0.7934 -0.2310 -1.2646
C 2.4955 -0.2678 0.1012
H 2.4433 -1.3431 0.2564
H 2.7986 0.1918 1.0341
H 3.2643 -0.0876 -0.6433
H -0.9096 -1.9576 -0.6622
H -2.1710 -2.0175 0.5467
H -0.5857 -1.3747 0.9571
16
Frame 56
C -1.3576 -1.4301 0.1776
C -1.8253 -0.0356 -0.2035
C 1.1534 0.2052 -0.3504
C -1.0972 1.0660 -0.1122
C 0.3236 0.9985 0.2998
H 0.6291 1.5250 1.1879
H -2.8450 0.0389 -0.5372
H -1.5346 2.0236 -0.3298
H 0.8003 -0.2573 -1.2549
C 2.5118 -0.2508 0.1026
H 2.4821 -1.3252 0.2688
H 2.8096 0.2244 1.0294
H 3.2738 -0.0622 -0.6469
H -0.9479 -1.9623 -0.6751
H -2.1936 -2.0117 0.5503
H -0.5952 -1.3888 0.9415
16
Frame 57
C -1.3783 -1.4329 0.1722
C -1.8334 -0.0325 -0.1996
C 1.1591 0.1942 -0.3473
C -1.0942 1.0618 -0.1102
C 0.3276 0.9912 0.2960
H 0.6372 1.5312 1.1746
H -2.8541 0.0539 -0.5272
H -1.5258 2.0231 -0.3242
H 0.8068 -0.2841 -1.2437
C 2.5279 -0.2336 0.1036
H 2.5207 -1.3066 0.2808
H 2.8209 0.2572 1.0239
H 3.2821 -0.0373 -0.6516
H -0.9878 -1.9676 -0.6880
H -2.2161 -2.0050 0.5555
H -0.6042 -1.4029 0.9250
16
Frame 58
C -1.3992 -1.4356 0.1669
C -1.8410 -0.0294 -0.1962
C 1.1649 0.1833 -0.3436
C -1.0912 1.0575 -0.1083
C 0.3316 0.9841 0.2925
H 0.6454 1.5380 1.1612
H -2.8623 0.0687 -0.5185
H -1.5170 2.0222 -0.3187
H 0.8134 -0.3109 -1.2318
C 2.5436 -0.2165 0.1043
H 2.5587 -1.2872 0.2930
H 2.8324 0.2902 1.0171
H 3.2895 -0.0131 -0.6576
H -1.0294 -1.9736 -0.7006
H -2.2382 -1.9975 0.5621
H -0.6127 -1.4171 0.9072
16
Frame 59
C -1.4200 -1.4382 0.1616
C -1.8483 -0.0266 -0.1931
C 1.1707 0.1723 -0.3394
C -1.0881 1.0530 -0.1062
C 0.3356 0.9773 0.2894
H 0.6533 1.5452 1.1474
H -2.8700 0.0833 -0.5105
H -1.5083 2.0211 -0.3133
H 0.8197 -0.3381 -1.2185
C 2.5590 -0.1993 0.1045
H 2.5964 -1.2672 0.3048
H 2.8439 0.3234 1.0097
H 3.2959 0.0103 -0.6644
H -1.0724 -1.9797 -0.7131
H -2.2600 -1.9893 0.5702
H -0.6209 -1.4313 0.8884
16
Frame 60
C -1.4410 -1.4408 0.1563
C -1.8553 -0.0238 -0.1904
C 1.1766 0.1614 -0.3346
C -1.0848 1.0484 -0.1042
C 0.3396 0.9705 0.2865
H 0.6612 1.5527 1.1337
H -2.8771 0.0978 -0.5034
H -1.4994 2.0198 -0.3081
H 0.8264 -0.3652 -1.2044
C 2.5740 -0.1821 0.1044
H 2.6334 -1.2466 0.3166
H 2.8555 0.3566 1.0011
H 3.3014 0.0330 -0.6723
H -1.1170 -1.9862 -0.7252
H -2.2811 -1.9805 0.5793
H -0.6287 -1.4457 0.8686
16
Frame 61
C -1.4619 -1.4433 0.1510
C -1.8621 -0.0212 -0.1880
C 1.1826 0.1506 -0.3293
C -1.0816 1.0437 -0.1021
C 0.3437 0.9638 0.2838
H 0.6688 1.5603 1.1197
H -2.8837 0.1120 -0.4968
H -1.4905 2.0182 -0.3029
H 0.8330 -0.3925 -1.1892
C 2.5888 -0.1649 0.1039
H 2.6699 -1.2253 0.3285
H 2.8670 0.3903 0.9917
H 3.3062 0.0545 -0.6808
H -1.1626 -1.9924 -0.7370
H -2.3018 -1.9712 0.5895
H -0.6365 -1.4603 0.8479
16
Frame 62
C -1.4829 -1.4457 0.1457
C -1.8686 -0.0186 -0.1859
C 1.1887 0.1399 -0.3237
C -1.0782 1.0388 -0.1001
C 0.3478 0.9572 0.2814
H 0.6764 1.5679 1.1057
H -2.8898 0.1261 -0.4908
H -1.4816 2.0164 -0.2979
H 0.8401 -0.4192 -1.1736
C 2.6033 -0.1477 0.1032
H 2.7058 -1.2034 0.3404
H 2.8784 0.4239 0.9815
H 3.3102 0.0752 -0.6901
H -1.2097 -1.9987 -0.7484
H -2.3217 -1.9615 0.6006
H -0.6442 -1.4751 0.8262
16
Frame 63
C -1.5040 -1.4481 0.1405
C -1.8749 -0.0162 -0.1839
C 1.1950 0.1294 -0.3177
C -1.0749 1.0338 -0.0980
C 0.3519 0.9506 0.2791
H 0.6836 1.5754 1.0915
H -2.8956 0.1399 -0.4852
H -1.4727 2.0143 -0.2930
H 0.8475 -0.4459 -1.1571
C 2.6174 -0.1305 0.1023
H 2.7409 -1.1807 0.3527
H 2.8896 0.4581 0.9702
H 3.3137 0.0944 -0.6999
H -1.2573 -2.0045 -0.7594
H -2.3411 -1.9515 0.6120
H -0.6523 -1.4901 0.8040
16
Frame 64
C -1.5251 -1.4504 0.1352
C -1.8810 -0.0139 -0.1822
C 1.2015 0.1192 -0.3116
C -1.0714 1.0286 -0.0959
C 0.3560 0.9440 0.2771
H 0.6907 1.5825 1.0776
H -2.9010 0.1539 -0.4799
H -1.4636 2.0121 -0.2882
H 0.8554 -0.4720 -1.1405
C 2.6313 -0.1133 0.1011
H 2.7753 -1.1574 0.3653
H 2.9007 0.4926 0.9579
H 3.3167 0.1123 -0.7103
H -1.3059 -2.0100 -0.7698
H -2.3600 -1.9413 0.6239
H -0.6607 -1.5055 0.7813
16
Frame 65
C -1.5464 -1.4526 0.1301
C -1.8870 -0.0117 -0.1805
C 1.2084 0.1092 -0.3052
C -1.0679 1.0233 -0.0939
C 0.3603 0.9372 0.2752
H 0.6974 1.5891 1.0640
H -2.9061 0.1676 -0.4750
H -1.4545 2.0096 -0.2836
H 0.8639 -0.4974 -1.1237
C 2.6449 -0.0960 0.0997
H 2.8090 -1.1333 0.3784
H 2.9113 0.5277 0.9445
H 3.3194 0.1289 -0.7210
H -1.3545 -2.0149 -0.7797
H -2.3787 -1.9310 0.6356
H -0.6700 -1.5211 0.7585
16
Frame 66
C -1.5679 -1.4548 0.1250
C -1.8930 -0.0095 -0.1790
C 1.2156 0.0997 -0.2990
C -1.0644 1.0177 -0.0919
C 0.3645 0.9304 0.2735
H 0.7039 1.5950 1.0506
H -2.9108 0.1814 -0.4703
H -1.4452 2.0069 -0.2791
H 0.8734 -0.5221 -1.1069
C 2.6583 -0.0788 0.0982
H 2.8416 -1.1087 0.3920
H 2.9219 0.5628 0.9305
H 3.3221 0.1439 -0.7319
H -1.4041 -2.0195 -0.7888
H -2.3967 -1.9206 0.6478
H -0.6800 -1.5369 0.7353
16
Frame 67
C -1.5896 -1.4569 0.1201
C -1.8988 -0.0075 -0.1776
C 1.2231 0.0905 -0.2927
C -1.0608 1.0120 -0.0899
C 0.3688 0.9233 0.2720
H 0.7099 1.6002 1.0379
H -2.9153 0.1949 -0.4659
H -1.4360 2.0038 -0.2748
H 0.8836 -0.5455 -1.0905
C 2.6715 -0.0616 0.0966
H 2.8735 -1.0832 0.4063
H 2.9319 0.5985 0.9153
H 3.3248 0.1574 -0.7427
H -1.4538 -2.0234 -0.7974
H -2.4148 -1.9101 0.6597
H -0.6909 -1.5531 0.7125
16
Frame 68
C -1.6116 -1.4590 0.1154
C -1.9044 -0.0056 -0.1762
C 1.2311 0.0820 -0.2867
C -1.0571 1.0060 -0.0880
C 0.3731 0.9161 0.2707
H 0.7156 1.6043 1.0259
H -2.9194 0.2085 -0.4617
H -1.4266 2.0005 -0.2708
H 0.8947 -0.5679 -1.0746
C 2.6845 -0.0445 0.0949
H 2.9044 -1.0571 0.4211
H 2.9414 0.6343 0.8994
H 3.3278 0.1695 -0.7535
H -1.5040 -2.0268 -0.8050
H -2.4326 -1.8995 0.6717
H -0.7027 -1.5697 0.6894
16
Frame 69
C -1.6341 -1.4610 0.1111
C -1.9101 -0.0038 -0.1752
C 1.2395 0.0743 -0.2812
C -1.0533 0.9996 -0.0863
C 0.3775 0.9084 0.2699
H 0.7206 1.6067 1.0158
H -2.9232 0.2220 -0.4586
H -1.4168 1.9968 -0.2675
H 0.9068 -0.5876 -1.0606
C 2.6973 -0.0273 0.0932
H 2.9340 -1.0305 0.4358
H 2.9504 0.6696 0.8832
H 3.3313 0.1807 -0.7637
H -1.5547 -2.0300 -0.8116
H -2.4506 -1.8884 0.6843
H -0.7158 -1.5864 0.6669
16
Frame 70
C -1.6563 -1.4627 0.1073
C -1.9155 -0.0021 -0.1742
C 1.2483 0.0674 -0.2763
C -1.0495 0.9932 -0.0849
C 0.3817 0.9004 0.2694
H 0.7248 1.6070 1.0074
H -2.9266 0.2352 -0.4556
H -1.4069 1.9929 -0.2651
H 0.9200 -0.6054 -1.0483
C 2.7096 -0.0105 0.0916
H 2.9622 -1.0044 0.4496
H 2.9579 0.7034 0.8678
H 3.3355 0.1918 -0.7727
H -1.6062 -2.0328 -0.8168
H -2.4673 -1.8771 0.6978
H -0.7287 -1.6030 0.6439
16
Frame 71
C -1.6740 -1.4635 0.1098
C -1.9188 -0.0017 -0.1766
C 1.2564 0.0683 -0.2777
C -1.0462 0.9875 -0.0867
C 0.3839 0.8918 0.2730
H 0.7223 1.5937 1.0177
H -2.9271 0.2429 -0.4621
H -1.3971 1.9889 -0.2714
H 0.9340 -0.6002 -1.0560
C 2.7184 0.0004 0.0911
H 2.9803 -0.9940 0.4412
H 2.9595 0.7104 0.8731
H 3.3426 0.2157 -0.7712
H -1.6528 -2.0402 -0.8112
H -2.4777 -1.8620 0.7210
H -0.7370 -1.6136 0.6271
