14
Frame 1
C -1.9286 -0.0098 0.1892
C -0.4628 -0.0221 -0.2762
C 0.4411 1.1786 -0.0331
H -0.5127 -0.0609 -1.3711
H 0.0992 2.1926 -0.0853
C 1.6995 0.7613 0.0932
C 1.7215 -0.7192 0.1347
H 2.5722 1.3777 0.1676
H 2.6140 -1.3047 0.2371
C 0.4749 -1.1824 0.0419
H 0.1693 -2.1942 0.0473
H -2.4306 -0.9018 -0.1656
H -2.4334 0.8466 -0.2430
H -2.0235 0.0382 1.2632
14
Frame 2
C -1.9319 -0.0070 0.1844
C -0.4619 -0.0199 -0.2660
C 0.4424 1.1805 -0.0264
H -0.5063 -0.0593 -1.3610
H 0.0982 2.1999 -0.0775
C 1.7009 0.7630 0.0909
C 1.7232 -0.7165 0.1314
H 2.5814 1.3844 0.1587
H 2.6233 -1.3059 0.2255
C 0.4780 -1.1767 0.0489
H 0.1588 -2.2332 0.0553
H -2.4321 -0.9025 -0.1772
H -2.4326 0.8513 -0.2551
H -2.0416 0.0420 1.2682
14
Frame 3
C -1.9355 -0.0094 0.1828
C -0.4614 -0.0227 -0.2552
C 0.4428 1.1789 -0.0192
H -0.5008 -0.0628 -1.3506
H 0.1023 2.1866 -0.0690
C 1.7037 0.7610 0.0904
C 1.7268 -0.7198 0.1300
H 2.5707 1.3726 0.1508
H 2.6129 -1.3000 0.2142
C 0.4776 -1.1842 0.0566
H 0.1760 -2.1855 0.0625
H -2.4296 -0.9012 -0.1835
H -2.4294 0.8469 -0.2626
H -2.0563 0.0396 1.2528
14
Frame 4
C -1.9391 -0.0068 0.1787
C -0.4609 -0.0207 -0.2434
C 0.4436 1.1801 -0.0126
H -0.4953 -0.0617 -1.3396
H 0.0990 2.1980 -0.0631
C 1.7038 0.7621 0.0890
C 1.7270 -0.7169 0.1271
H 2.5834 1.3823 0.1428
H 2.6277 -1.3056 0.2024
C 0.4800 -1.1788 0.0638
H 0.1646 -2.2244 0.0688
H -2.4299 -0.9008 -0.1948
H -2.4277 0.8503 -0.2742
H -2.0760 0.0430 1.2550
14
Frame 5
C -1.9423 -0.0077 0.1762
C -0.4597 -0.0220 -0.2281
C 0.4442 1.1794 -0.0049
H -0.4887 -0.0646 -1.3247
H 0.1020 2.1887 -0.0565
C 1.7062 0.7609 0.0892
C 1.7305 -0.7186 0.1254
H 2.5767 1.3745 0.1343
H 2.6211 -1.3004 0.1878
C 0.4808 -1.1827 0.0725
H 0.1746 -2.1983 0.0747
H -2.4261 -0.9001 -0.2050
H -2.4228 0.8484 -0.2854
H -2.0965 0.0423 1.2446
14
Frame 6
C -1.9452 -0.0065 0.1731
C -0.4584 -0.0211 -0.2101
C 0.4445 1.1793 0.0019
H -0.4824 -0.0658 -1.3076
H 0.1004 2.1912 -0.0527
C 1.7066 0.7605 0.0898
C 1.7319 -0.7175 0.1235
H 2.5808 1.3769 0.1268
H 2.6275 -1.3019 0.1726
C 0.4824 -1.1810 0.0810
H 0.1716 -2.2076 0.0782
H -2.4215 -0.8994 -0.2180
H -2.4170 0.8492 -0.2987
H -2.1212 0.0438 1.2400
14
Frame 7
C -1.9468 -0.0058 0.1703
C -0.4566 -0.0203 -0.1903
C 0.4442 1.1784 0.0070
H -0.4759 -0.0691 -1.2888
H 0.0994 2.1892 -0.0502
C 1.7068 0.7591 0.0914
C 1.7339 -0.7169 0.1220
H 2.5803 1.3755 0.1210
H 2.6294 -1.3006 0.1586
C 0.4834 -1.1800 0.0881
H 0.1706 -2.2040 0.0795
H -2.4143 -0.8990 -0.2304
H -2.4100 0.8492 -0.3112
H -2.1445 0.0441 1.2330
14
Frame 8
C -1.9474 -0.0043 0.1670
C -0.4547 -0.0182 -0.1701
C 0.4432 1.1772 0.0096
H -0.4676 -0.0789 -1.2702
H 0.0974 2.1876 -0.0489
C 1.7063 0.7573 0.0932
C 1.7355 -0.7150 0.1205
H 2.5797 1.3744 0.1169
H 2.6316 -1.2982 0.1474
C 0.4842 -1.1772 0.0923
H 0.1653 -2.2004 0.0795
H -2.4059 -0.8985 -0.2415
H -2.4042 0.8498 -0.3218
H -2.1634 0.0443 1.2263
14
Frame 9
C -1.9475 -0.0020 0.1630
C -0.4532 -0.0141 -0.1513
C 0.4411 1.1762 0.0101
H -0.4541 -0.1004 -1.2523
H 0.0945 2.1860 -0.0483
C 1.7055 0.7556 0.0946
C 1.7368 -0.7116 0.1188
H 2.5785 1.3731 0.1138
H 2.6328 -1.2945 0.1395
C 0.4841 -1.1731 0.0929
H 0.1571 -2.1935 0.0799
H -2.3983 -0.8975 -0.2507
H -2.4010 0.8512 -0.3298
H -2.1763 0.0446 1.2199
14
Frame 10
C -1.9477 0.0010 0.1588
C -0.4525 -0.0083 -0.1352
C 0.4379 1.1758 0.0091
H -0.4350 -0.1325 -1.2352
H 0.0912 2.1853 -0.0483
C 1.7049 0.7542 0.0953
C 1.7378 -0.7068 0.1171
H 2.5771 1.3725 0.1113
H 2.6332 -1.2901 0.1345
C 0.4828 -1.1684 0.0904
H 0.1473 -2.1855 0.0815
H -2.3926 -0.8960 -0.2579
H -2.4003 0.8535 -0.3355
H -2.1842 0.0454 1.2143
14
Frame 11
C -1.9481 0.0042 0.1547
C -0.4524 -0.0014 -0.1220
C 0.4340 1.1760 0.0074
H -0.4114 -0.1715 -1.2189
H 0.0875 2.1854 -0.0488
C 1.7044 0.7532 0.0954
C 1.7387 -0.7011 0.1152
H 2.5757 1.3726 0.1090
H 2.6330 -1.2856 0.1313
C 0.4804 -1.1634 0.0859
H 0.1375 -2.1774 0.0844
H -2.3889 -0.8939 -0.2636
H -2.4014 0.8562 -0.3396
H -2.1890 0.0466 1.2094
14
Frame 12
C -1.9488 0.0077 0.1508
C -0.4529 0.0061 -0.1111
C 0.4295 1.1766 0.0054
H -0.3847 -0.2144 -1.2030
H 0.0838 2.1862 -0.0496
C 1.7041 0.7525 0.0950
C 1.7394 -0.6948 0.1134
H 2.5743 1.3733 0.1069
H 2.6323 -1.2812 0.1294
C 0.4771 -1.1584 0.0801
H 0.1281 -2.1696 0.0883
H -2.3867 -0.8914 -0.2682
H -2.4035 0.8593 -0.3427
H -2.1919 0.0482 1.2052
14
Frame 13
C -1.9498 0.0112 0.1472
C -0.4538 0.0139 -0.1019
C 0.4247 1.1777 0.0032
H -0.3560 -0.2595 -1.1877
H 0.0801 2.1875 -0.0507
C 1.7039 0.7522 0.0944
C 1.7400 -0.6884 0.1116
H 2.5729 1.3746 0.1049
H 2.6313 -1.2770 0.1283
C 0.4730 -1.1535 0.0737
H 0.1194 -2.1623 0.0929
H -2.3855 -0.8887 -0.2722
H -2.4061 0.8625 -0.3451
H -2.1940 0.0500 1.2015
14
Frame 14
C -1.9511 0.0147 0.1437
C -0.4550 0.0218 -0.0939
C 0.4197 1.1790 0.0011
H -0.3257 -0.3060 -1.1729
H 0.0764 2.1891 -0.0521
C 1.7036 0.7520 0.0935
C 1.7406 -0.6818 0.1099
H 2.5714 1.3762 0.1030
H 2.6300 -1.2728 0.1276
C 0.4684 -1.1486 0.0667
H 0.1114 -2.1555 0.0980
H -2.3852 -0.8858 -0.2757
H -2.4090 0.8658 -0.3472
H -2.1955 0.0519 1.1981
14
Frame 15
C -1.9525 0.0183 0.1405
C -0.4564 0.0298 -0.0868
C 0.4145 1.1805 -0.0011
H -0.2942 -0.3534 -1.1591
H 0.0727 2.1911 -0.0537
C 1.7034 0.7521 0.0925
C 1.7411 -0.6752 0.1083
H 2.5698 1.3781 0.1012
H 2.6285 -1.2688 0.1274
C 0.4634 -1.1439 0.0595
H 0.1041 -2.1491 0.1038
H -2.3854 -0.8829 -0.2788
H -2.4121 0.8691 -0.3489
H -2.1969 0.0541 1.1952
14
Frame 16
C -1.9541 0.0218 0.1375
C -0.4580 0.0378 -0.0804
C 0.4092 1.1822 -0.0031
H -0.2618 -0.4015 -1.1465
H 0.0691 2.1934 -0.0553
C 1.7032 0.7523 0.0915
C 1.7414 -0.6685 0.1067
H 2.5682 1.3803 0.0995
H 2.6268 -1.2648 0.1274
C 0.4579 -1.1392 0.0521
H 0.0975 -2.1430 0.1101
H -2.3861 -0.8798 -0.2816
H -2.4152 0.8725 -0.3504
H -2.1981 0.0563 1.1926
14
Frame 17
C -1.9559 0.0254 0.1348
C -0.4598 0.0459 -0.0743
C 0.4039 1.1841 -0.0051
H -0.2285 -0.4501 -1.1355
H 0.0656 2.1959 -0.0571
C 1.7028 0.7527 0.0904
C 1.7417 -0.6619 0.1053
H 2.5665 1.3827 0.0979
H 2.6250 -1.2609 0.1276
C 0.4522 -1.1346 0.0446
H 0.0916 -2.1371 0.1169
H -2.3871 -0.8767 -0.2841
H -2.4185 0.8760 -0.3517
H -2.1994 0.0587 1.1903
14
Frame 18
C -1.9580 0.0290 0.1330
C -0.4618 0.0540 -0.0683
C 0.3983 1.1863 -0.0065
H -0.1946 -0.4992 -1.1265
H 0.0624 2.1979 -0.0587
C 1.7025 0.7533 0.0897
C 1.7417 -0.6553 0.1044
H 2.5640 1.3849 0.0968
H 2.6238 -1.2574 0.1283
C 0.4461 -1.1301 0.0374
H 0.0865 -2.1312 0.1248
H -2.3885 -0.8737 -0.2861
H -2.4223 0.8805 -0.3531
H -2.2002 0.0610 1.1849
14
Frame 19
C -1.9599 0.0326 0.1287
C -0.4636 0.0619 -0.0638
C 0.3929 1.1880 -0.0090
H -0.1607 -0.5477 -1.1195
H 0.0587 2.2031 -0.0617
C 1.7021 0.7536 0.0878
C 1.7422 -0.6491 0.1024
H 2.5645 1.3890 0.0947
H 2.6194 -1.2519 0.1277
C 0.4400 -1.1258 0.0290
H 0.0818 -2.1277 0.1324
H -2.3896 -0.8700 -0.2890
H -2.4236 0.8804 -0.3535
H -2.2043 0.0636 1.1938
14
Frame 20
C -1.9638 0.0392 0.1264
C -0.4679 0.0762 -0.0539
C 0.3826 1.1922 -0.0112
H -0.0987 -0.6386 -1.1125
H 0.0528 2.2065 -0.0651
C 1.7012 0.7555 0.0868
C 1.7418 -0.6373 0.1016
H 2.5595 1.3931 0.0936
H 2.6184 -1.2453 0.1290
C 0.4289 -1.1180 0.0173
H 0.0745 -2.1167 0.1516
H -2.3929 -0.8645 -0.2918
H -2.4311 0.8897 -0.3552
H -2.2054 0.0680 1.1834
14
Frame 21
C -1.9681 0.0457 0.1240
C -0.4727 0.0905 -0.0443
C 0.3718 1.1965 -0.0134
H -0.0354 -0.7281 -1.1079
H 0.0473 2.2095 -0.0685
C 1.6999 0.7572 0.0856
C 1.7409 -0.6255 0.1008
H 2.5565 1.3992 0.0923
H 2.6183 -1.2391 0.1314
C 0.4172 -1.1103 0.0050
H 0.0672 -2.1084 0.1729
H -2.3960 -0.8600 -0.2952
H -2.4393 0.8999 -0.3578
H -2.2078 0.0728 1.1754
14
Frame 22
C -1.9702 0.0492 0.1210
C -0.4748 0.0982 -0.0393
C 0.3663 1.1980 -0.0149
H -0.0011 -0.7772 -1.1116
H 0.0437 2.2160 -0.0713
C 1.7001 0.7577 0.0844
C 1.7415 -0.6198 0.0998
H 2.5536 1.4006 0.0912
H 2.6126 -1.2324 0.1312
C 0.4109 -1.1070 -0.0025
H 0.0653 -2.1008 0.1841
H -2.3963 -0.8553 -0.2968
H -2.4397 0.8980 -0.3564
H -2.2120 0.0749 1.1812
14
Frame 23
C -1.9725 0.0529 0.1200
C -0.4774 0.1061 -0.0335
C 0.3602 1.2003 -0.0156
H 0.0332 -0.8266 -1.1146
H 0.0411 2.2183 -0.0729
C 1.6997 0.7586 0.0839
C 1.7412 -0.6135 0.0996
H 2.5522 1.4038 0.0909
H 2.6124 -1.2289 0.1320
C 0.4044 -1.1030 -0.0096
H 0.0619 -2.0955 0.1981
H -2.3974 -0.8528 -0.2986
H -2.4442 0.9032 -0.3575
H -2.2147 0.0772 1.1778
14
Frame 24
C -1.9749 0.0566 0.1187
C -0.4800 0.1137 -0.0280
C 0.3543 1.2025 -0.0164
H 0.0668 -0.8760 -1.1201
H 0.0383 2.2215 -0.0748
C 1.6996 0.7594 0.0832
C 1.7412 -0.6075 0.0993
H 2.5506 1.4065 0.0906
H 2.6112 -1.2245 0.1323
C 0.3979 -1.0994 -0.0169
H 0.0590 -2.0891 0.2141
H -2.3979 -0.8498 -0.3006
H -2.4478 0.9067 -0.3579
H -2.2184 0.0793 1.1764
14
Frame 25
C -1.9771 0.0603 0.1174
C -0.4826 0.1211 -0.0226
C 0.3483 1.2047 -0.0171
H 0.0997 -0.9252 -1.1270
H 0.0355 2.2248 -0.0764
C 1.6996 0.7601 0.0825
C 1.7413 -0.6015 0.0990
H 2.5492 1.4091 0.0904
H 2.6103 -1.2201 0.1326
C 0.3915 -1.0959 -0.0243
H 0.0561 -2.0820 0.2316
H -2.3980 -0.8468 -0.3028
H -2.4514 0.9101 -0.3584
H -2.2225 0.0813 1.1751
14
Frame 26
C -1.9794 0.0639 0.1160
C -0.4851 0.1282 -0.0175
C 0.3424 1.2068 -0.0177
H 0.1316 -0.9744 -1.1347
H 0.0328 2.2280 -0.0779
C 1.6998 0.7608 0.0817
C 1.7415 -0.5957 0.0987
H 2.5479 1.4116 0.0902
H 2.6096 -1.2156 0.1327
C 0.3853 -1.0927 -0.0320
H 0.0534 -2.0739 0.2510
H -2.3976 -0.8438 -0.3053
H -2.4551 0.9135 -0.3589
H -2.2270 0.0830 1.1735
14
Frame 27
C -1.9816 0.0676 0.1146
C -0.4877 0.1349 -0.0127
C 0.3365 1.2090 -0.0184
H 0.1622 -1.0237 -1.1428
H 0.0300 2.2312 -0.0791
C 1.7003 0.7615 0.0806
C 1.7419 -0.5900 0.0984
H 2.5469 1.4141 0.0901
H 2.6093 -1.2111 0.1327
C 0.3791 -1.0897 -0.0400
H 0.0508 -2.0646 0.2725
H -2.3967 -0.8408 -0.3082
H -2.4588 0.9168 -0.3595
H -2.2322 0.0845 1.1717
14
Frame 28
C -1.9838 0.0713 0.1131
C -0.4902 0.1412 -0.0083
C 0.3308 1.2112 -0.0191
H 0.1912 -1.0729 -1.1506
H 0.0272 2.2344 -0.0799
C 1.7009 0.7623 0.0793
C 1.7425 -0.5845 0.0979
H 2.5463 1.4165 0.0899
H 2.6093 -1.2066 0.1324
C 0.3731 -1.0870 -0.0484
H 0.0482 -2.0538 0.2963
H -2.3953 -0.8379 -0.3118
H -2.4624 0.9201 -0.3604
H -2.2380 0.0857 1.1695
14
Frame 29
C -1.9859 0.0749 0.1114
C -0.4926 0.1470 -0.0046
C 0.3254 1.2134 -0.0199
H 0.2181 -1.1223 -1.1576
H 0.0244 2.2375 -0.0802
C 1.7018 0.7631 0.0776
C 1.7433 -0.5793 0.0972
H 2.5460 1.4188 0.0898
H 2.6097 -1.2022 0.1319
C 0.3675 -1.0848 -0.0574
H 0.0459 -2.0411 0.3225
H -2.3932 -0.8349 -0.3160
H -2.4658 0.9234 -0.3616
H -2.2444 0.0866 1.1669
14
Frame 30
C -1.9879 0.0785 0.1094
C -0.4950 0.1522 -0.0016
C 0.3203 1.2156 -0.0208
H 0.2419 -1.1719 -1.1632
H 0.0214 2.2405 -0.0798
C 1.7031 0.7640 0.0755
C 1.7444 -0.5744 0.0962
H 2.5462 1.4210 0.0896
H 2.6106 -1.1978 0.1311
C 0.3622 -1.0831 -0.0669
H 0.0440 -2.0261 0.3511
H -2.3904 -0.8319 -0.3213
H -2.4691 0.9265 -0.3632
H -2.2516 0.0869 1.1638
14
Frame 31
C -1.9898 0.0820 0.1070
C -0.4971 0.1566 0.0003
C 0.3157 1.2178 -0.0217
H 0.2616 -1.2217 -1.1670
H 0.0183 2.2434 -0.0782
C 1.7048 0.7650 0.0728
C 1.7458 -0.5700 0.0947
H 2.5469 1.4232 0.0895
H 2.6121 -1.1935 0.1300
C 0.3576 -1.0821 -0.0771
H 0.0426 -2.0082 0.3825
H -2.3871 -0.8287 -0.3277
H -2.4719 0.9297 -0.3653
H -2.2595 0.0866 1.1601
14
Frame 32
C -1.9915 0.0854 0.1042
C -0.4990 0.1601 0.0009
C 0.3118 1.2199 -0.0226
H 0.2757 -1.2715 -1.1684
H 0.0151 2.2461 -0.0749
C 1.7070 0.7662 0.0695
C 1.7477 -0.5661 0.0925
H 2.5483 1.4254 0.0896
H 2.6143 -1.1894 0.1286
C 0.3539 -1.0820 -0.0876
H 0.0423 -1.9872 0.4163
H -2.3832 -0.8252 -0.3356
H -2.4742 0.9329 -0.3680
H -2.2681 0.0855 1.1556
14
Frame 33
C -1.9931 0.0886 0.1008
C -0.5002 0.1628 -0.0004
C 0.3088 1.2219 -0.0234
H 0.2825 -1.3213 -1.1671
H 0.0119 2.2485 -0.0691
C 1.7096 0.7677 0.0655
C 1.7500 -0.5628 0.0891
H 2.5504 1.4276 0.0900
H 2.6172 -1.1855 0.1267
C 0.3514 -1.0828 -0.0980
H 0.0436 -1.9633 0.4522
H -2.3794 -0.8213 -0.3453
H -2.4755 0.9363 -0.3712
H -2.2769 0.0834 1.1502
14
Frame 34
C -1.9945 0.0916 0.0965
C -0.5008 0.1645 -0.0042
C 0.3068 1.2237 -0.0239
H 0.2810 -1.3703 -1.1625
H 0.0088 2.2506 -0.0599
C 1.7126 0.7695 0.0608
C 1.7526 -0.5600 0.0840
H 2.5529 1.4300 0.0912
H 2.6207 -1.1818 0.1242
C 0.3503 -1.0847 -0.1073
H 0.0472 -1.9374 0.4890
H -2.3764 -0.8164 -0.3571
H -2.4758 0.9404 -0.3748
H -2.2852 0.0802 1.1439
14
Frame 35
C -1.9958 0.0943 0.0910
C -0.5006 0.1654 -0.0106
C 0.3059 1.2251 -0.0239
H 0.2723 -1.4169 -1.1540
H 0.0061 2.2520 -0.0468
C 1.7155 0.7714 0.0557
C 1.7553 -0.5578 0.0763
H 2.5552 1.4325 0.0932
H 2.6243 -1.1783 0.1204
C 0.3505 -1.0873 -0.1141
H 0.0536 -1.9118 0.5246
H -2.3757 -0.8105 -0.3708
H -2.4751 0.9458 -0.3778
H -2.2915 0.0760 1.1369
14
Frame 36
C -1.9970 0.0967 0.0842
C -0.5000 0.1655 -0.0191
C 0.3056 1.2257 -0.0230
H 0.2610 -1.4584 -1.1413
H 0.0039 2.2525 -0.0314
C 1.7174 0.7730 0.0508
C 1.7577 -0.5560 0.0660
H 2.5565 1.4347 0.0958
H 2.6275 -1.1753 0.1136
C 0.3514 -1.0902 -0.1171
H 0.0623 -1.8882 0.5571
H -2.3781 -0.8033 -0.3858
H -2.4738 0.9525 -0.3791
H -2.2945 0.0707 1.1294
