16
Frame 1
C 0.1891 0.0836 -0.7147
C 1.2414 1.0475 -0.4706
H 0.0241 -0.1882 -1.7724
C 1.9800 1.5891 -1.4428
H 1.4139 1.3248 0.5844
H 2.7731 2.3181 -1.2343
H 1.8418 1.3415 -2.5031
C -0.5700 -0.4776 0.2452
C -1.6304 -1.4595 -0.0888
C -0.4140 -0.1682 1.6869
H -0.5740 0.9236 1.8729
H 0.6164 -0.4324 2.0347
H -1.1493 -0.7398 2.3050
H -1.6901 -1.6487 -1.1881
H -2.6244 -1.0820 0.2592
H -1.4276 -2.4317 0.4264
16
Frame 2
C 0.1963 0.0754 -0.7141
C 1.2477 1.0405 -0.4701
H 0.0305 -0.1955 -1.7719
C 1.9508 1.6218 -1.4455
H 1.4494 1.2851 0.5877
H 2.7429 2.3519 -1.2371
H 1.7823 1.4079 -2.5087
C -0.5630 -0.4854 0.2458
C -1.6236 -1.4671 -0.0881
C -0.4068 -0.1762 1.6875
H -0.5622 0.9161 1.8734
H 0.6222 -0.4449 2.0363
H -1.1448 -0.7446 2.3049
H -1.6842 -1.6555 -1.1878
H -2.6175 -1.0898 0.2612
H -1.4199 -2.4398 0.4265
16
Frame 3
C 0.2033 0.0677 -0.7140
C 1.2541 1.0332 -0.4699
H 0.0361 -0.2014 -1.7722
C 1.9206 1.6549 -1.4463
H 1.4868 1.2434 0.5891
H 2.7128 2.3849 -1.2376
H 1.7199 1.4768 -2.5107
C -0.5557 -0.4935 0.2459
C -1.6162 -1.4752 -0.0878
C -0.3994 -0.1841 1.6877
H -0.5479 0.9094 1.8724
H 0.6273 -0.4593 2.0377
H -1.1421 -0.7471 2.3050
H -1.6756 -1.6654 -1.1873
H -2.6105 -1.0970 0.2596
H -1.4137 -2.4472 0.4285
16
Frame 4
C 0.2102 0.0599 -0.7146
C 1.2600 1.0267 -0.4702
H 0.0419 -0.2077 -1.7729
C 1.8900 1.6878 -1.4447
H 1.5224 1.2039 0.5880
H 2.6814 2.4185 -1.2356
H 1.6579 1.5437 -2.5079
C -0.5487 -0.5013 0.2453
C -1.6090 -1.4833 -0.0880
C -0.3912 -0.1922 1.6870
H -0.5300 0.9028 1.8711
H 0.6327 -0.4766 2.0383
H -1.1393 -0.7483 2.3036
H -1.6664 -1.6760 -1.1871
H -2.6037 -1.1036 0.2566
H -1.4080 -2.4541 0.4311
16
Frame 5
C 0.2172 0.0519 -0.7159
C 1.2659 1.0199 -0.4709
H 0.0481 -0.2143 -1.7744
C 1.8591 1.7205 -1.4408
H 1.5582 1.1641 0.5844
H 2.6496 2.4520 -1.2310
H 1.5957 1.6102 -2.5007
C -0.5414 -0.5094 0.2442
C -1.6020 -1.4913 -0.0886
C -0.3828 -0.2001 1.6857
H -0.5132 0.8958 1.8688
H 0.6384 -0.4922 2.0377
H -1.1355 -0.7499 2.3023
H -1.6575 -1.6866 -1.1873
H -2.5969 -1.1097 0.2532
H -1.4030 -2.4609 0.4333
16
Frame 6
C 0.2239 0.0442 -0.7179
C 1.2712 1.0136 -0.4721
H 0.0547 -0.2211 -1.7764
C 1.8273 1.7535 -1.4347
H 1.5940 1.1247 0.5785
H 2.6170 2.4857 -1.2240
H 1.5325 1.6767 -2.4893
C -0.5342 -0.5174 0.2424
C -1.5946 -1.4997 -0.0895
C -0.3743 -0.2078 1.6837
H -0.4896 0.8901 1.8650
H 0.6425 -0.5134 2.0376
H -1.1355 -0.7464 2.2999
H -1.6480 -1.6983 -1.1878
H -2.5900 -1.1167 0.2491
H -1.3971 -2.4679 0.4356
16
Frame 7
C 0.2310 0.0361 -0.7203
C 1.2771 1.0069 -0.4738
H 0.0614 -0.2280 -1.7791
C 1.7954 1.7860 -1.4264
H 1.6308 1.0847 0.5700
H 2.5842 2.5187 -1.2145
H 1.4683 1.7429 -2.4734
C -0.5271 -0.5251 0.2400
C -1.5871 -1.5081 -0.0910
C -0.3660 -0.2149 1.6811
H -0.4669 0.8848 1.8604
H 0.6464 -0.5331 2.0368
H -1.1350 -0.7426 2.2970
H -1.6388 -1.7094 -1.1888
H -2.5830 -1.1240 0.2450
H -1.3907 -2.4749 0.4370
16
Frame 8
C 0.2380 0.0286 -0.7230
C 1.2832 1.0004 -0.4756
H 0.0683 -0.2347 -1.7819
C 1.7640 1.8171 -1.4162
H 1.6680 1.0459 0.5587
H 2.5523 2.5502 -1.2040
H 1.4045 1.8065 -2.4531
C -0.5198 -0.5327 0.2374
C -1.5800 -1.5156 -0.0931
C -0.3576 -0.2222 1.6782
H -0.4505 0.8783 1.8565
H 0.6523 -0.5476 2.0348
H -1.1310 -0.7438 2.2940
H -1.6300 -1.7195 -1.1905
H -2.5762 -1.1298 0.2403
H -1.3854 -2.4813 0.4376
16
Frame 9
C 0.2444 0.0209 -0.7271
C 1.2885 0.9941 -0.4783
H 0.0745 -0.2407 -1.7862
C 1.7324 1.8483 -1.4033
H 1.7031 1.0072 0.5456
H 2.5200 2.5817 -1.1891
H 1.3416 1.8700 -2.4284
C -0.5128 -0.5405 0.2336
C -1.5730 -1.5238 -0.0952
C -0.3486 -0.2289 1.6741
H -0.4290 0.8729 1.8503
H 0.6574 -0.5649 2.0318
H -1.1281 -0.7407 2.2901
H -1.6210 -1.7315 -1.1920
H -2.5694 -1.1362 0.2350
H -1.3799 -2.4878 0.4391
16
Frame 10
C 0.2510 0.0134 -0.7312
C 1.2944 0.9874 -0.4813
H 0.0808 -0.2468 -1.7905
C 1.7016 1.8779 -1.3886
H 1.7391 0.9693 0.5297
H 2.4889 2.6112 -1.1731
H 1.2786 1.9318 -2.3998
C -0.5058 -0.5478 0.2297
C -1.5662 -1.5313 -0.0980
C -0.3400 -0.2355 1.6698
H -0.4139 0.8667 1.8447
H 0.6640 -0.5766 2.0276
H -1.1221 -0.7420 2.2864
H -1.6126 -1.7420 -1.1943
H -2.5629 -1.1419 0.2294
H -1.3749 -2.4939 0.4394
16
Frame 11
C 0.2572 0.0065 -0.7358
C 1.2999 0.9814 -0.4847
H 0.0872 -0.2528 -1.7953
C 1.6704 1.9073 -1.3719
H 1.7753 0.9321 0.5114
H 2.4575 2.6404 -1.1551
H 1.2152 1.9927 -2.3671
C -0.4990 -0.5549 0.2253
C -1.5590 -1.5391 -0.1012
C -0.3316 -0.2417 1.6650
H -0.3933 0.8617 1.8378
H 0.6687 -0.5932 2.0241
H -1.1199 -0.7387 2.2817
H -1.6036 -1.7529 -1.1970
H -2.5562 -1.1485 0.2233
H -1.3688 -2.5002 0.4393
16
Frame 12
C 0.2636 -0.0004 -0.7408
C 1.3054 0.9755 -0.4885
H 0.0939 -0.2589 -1.8005
C 1.6399 1.9353 -1.3532
H 1.8110 0.8958 0.4908
H 2.4271 2.6680 -1.1351
H 1.1532 2.0510 -2.3302
C -0.4925 -0.5617 0.2204
C -1.5521 -1.5465 -0.1050
C -0.3235 -0.2473 1.6597
H -0.3765 0.8568 1.8307
H 0.6740 -0.6059 2.0194
H -1.1157 -0.7373 2.2769
H -1.5967 -1.7615 -1.2004
H -2.5493 -1.1559 0.2193
H -1.3616 -2.5069 0.4366
16
Frame 13
C 0.2698 -0.0070 -0.7462
C 1.3110 0.9697 -0.4928
H 0.1005 -0.2647 -1.8060
C 1.6098 1.9624 -1.3329
H 1.8465 0.8611 0.4674
H 2.3971 2.6947 -1.1136
H 1.0918 2.1074 -2.2896
C -0.4859 -0.5682 0.2151
C -1.5454 -1.5534 -0.1091
C -0.3154 -0.2532 1.6541
H -0.3611 0.8514 1.8238
H 0.6799 -0.6175 2.0143
H -1.1109 -0.7374 2.2717
H -1.5890 -1.7706 -1.2042
H -2.5429 -1.1619 0.2134
H -1.3557 -2.5127 0.4347
16
Frame 14
C 0.2759 -0.0131 -0.7517
C 1.3168 0.9641 -0.4976
H 0.1070 -0.2703 -1.8117
C 1.5806 1.9881 -1.3109
H 1.8826 0.8269 0.4413
H 2.3685 2.7194 -1.0908
H 1.0311 2.1617 -2.2451
C -0.4797 -0.5741 0.2096
C -1.5390 -1.5597 -0.1137
C -0.3077 -0.2587 1.6484
H -0.3501 0.8461 1.8173
H 0.6866 -0.6254 2.0083
H -1.1044 -0.7402 2.2663
H -1.5819 -1.7786 -1.2086
H -2.5366 -1.1677 0.2076
H -1.3496 -2.5183 0.4315
16
Frame 15
C 0.2814 -0.0192 -0.7583
C 1.3220 0.9586 -0.5026
H 0.1134 -0.2758 -1.8185
C 1.5514 2.0133 -1.2863
H 1.9168 0.7932 0.4137
H 2.3398 2.7437 -1.0648
H 0.9717 2.2148 -2.1964
C -0.4737 -0.5802 0.2032
C -1.5326 -1.5667 -0.1185
C -0.2999 -0.2633 1.6414
H -0.3347 0.8423 1.8081
H 0.6925 -0.6360 2.0014
H -1.0997 -0.7385 2.2604
H -1.5752 -1.7873 -1.2130
H -2.5304 -1.1745 0.2020
H -1.3428 -2.5243 0.4283
16
Frame 16
C 0.2874 -0.0252 -0.7646
C 1.3275 0.9534 -0.5082
H 0.1201 -0.2814 -1.8249
C 1.5234 2.0369 -1.2608
H 1.9518 0.7614 0.3828
H 2.3124 2.7665 -1.0387
H 0.9134 2.2647 -2.1443
C -0.4674 -0.5860 0.1969
C -1.5266 -1.5725 -0.1240
C -0.2927 -0.2682 1.6348
H -0.3260 0.8374 1.8008
H 0.6996 -0.6417 1.9942
H -1.0923 -0.7421 2.2548
H -1.5689 -1.7943 -1.2183
H -2.5243 -1.1795 0.1957
H -1.3375 -2.5295 0.4241
16
Frame 17
C 0.2931 -0.0307 -0.7713
C 1.3331 0.9484 -0.5142
H 0.1266 -0.2866 -1.8318
C 1.4959 2.0595 -1.2336
H 1.9867 0.7304 0.3498
H 2.2861 2.7877 -1.0110
H 0.8561 2.3128 -2.0887
C -0.4615 -0.5914 0.1902
C -1.5206 -1.5783 -0.1299
C -0.2858 -0.2726 1.6278
H -0.3173 0.8332 1.7927
H 0.7062 -0.6470 1.9867
H -1.0858 -0.7448 2.2487
H -1.5631 -1.8007 -1.2239
H -2.5182 -1.1851 0.1897
H -1.3314 -2.5349 0.4187
16
Frame 18
C 0.2986 -0.0359 -0.7782
C 1.3384 0.9439 -0.5205
H 0.1334 -0.2917 -1.8388
C 1.4694 2.0805 -1.2049
H 2.0200 0.7020 0.3145
H 2.2604 2.8078 -0.9821
H 0.8009 2.3575 -2.0299
C -0.4560 -0.5963 0.1832
C -1.5149 -1.5835 -0.1361
C -0.2792 -0.2769 1.6206
H -0.3097 0.8290 1.7849
H 0.7130 -0.6517 1.9787
H -1.0788 -0.7483 2.2422
H -1.5578 -1.8062 -1.2301
H -2.5125 -1.1904 0.1838
H -1.3253 -2.5399 0.4127
16
Frame 19
C 0.3040 -0.0407 -0.7852
C 1.3440 0.9396 -0.5272
H 0.1400 -0.2966 -1.8459
C 1.4438 2.1005 -1.1750
H 2.0545 0.6736 0.2765
H 2.2365 2.8261 -0.9527
H 0.7460 2.4008 -1.9676
C -0.4504 -0.6010 0.1761
C -1.5094 -1.5883 -0.1428
C -0.2732 -0.2809 1.6133
H -0.3055 0.8250 1.7774
H 0.7201 -0.6536 1.9704
H -1.0713 -0.7537 2.2358
H -1.5523 -1.8114 -1.2367
H -2.5069 -1.1948 0.1770
H -1.3200 -2.5445 0.4065
16
Frame 20
C 0.3089 -0.0450 -0.7927
C 1.3492 0.9353 -0.5343
H 0.1465 -0.3013 -1.8536
C 1.4192 2.1191 -1.1433
H 2.0865 0.6476 0.2367
H 2.2133 2.8431 -0.9209
H 0.6948 2.4407 -1.9023
C -0.4454 -0.6052 0.1685
C -1.5041 -1.5930 -0.1496
C -0.2674 -0.2843 1.6054
H -0.3011 0.8216 1.7686
H 0.7268 -0.6550 1.9615
H -1.0643 -0.7579 2.2290
H -1.5488 -1.8151 -1.2436
H -2.5013 -1.2008 0.1723
H -1.3129 -2.5496 0.3982
16
Frame 21
C 0.3228 -0.0559 -0.7866
C 1.4144 0.8730 -0.5502
H 0.1478 -0.3123 -1.8466
C 1.5050 2.0707 -1.1281
H 2.1892 0.5246 0.1561
H 2.3462 2.7487 -0.9358
H 0.7496 2.4529 -1.8261
C -0.4558 -0.5847 0.1717
C -1.5460 -1.5371 -0.1555
C -0.3128 -0.2660 1.6121
H -1.0939 0.4773 1.9140
H 0.6909 0.1700 1.8395
H -0.4498 -1.1864 2.2328
H -1.6701 -1.6625 -1.2587
H -2.5140 -1.1733 0.2709
H -1.3235 -2.5391 0.2904
16
Frame 22
C 0.3265 -0.0600 -0.7956
C 1.4179 0.8697 -0.5579
H 0.1535 -0.3164 -1.8557
C 1.4826 2.0888 -1.0921
H 2.2154 0.5004 0.1114
H 2.3247 2.7659 -0.8999
H 0.7042 2.4908 -1.7527
C -0.4513 -0.5892 0.1628
C -1.5422 -1.5412 -0.1629
C -0.3055 -0.2703 1.6030
H -1.0880 0.4697 1.9076
H 0.6973 0.1688 1.8270
H -0.4374 -1.1910 2.2237
H -1.6603 -1.6750 -1.2657
H -2.5115 -1.1709 0.2548
H -1.3256 -2.5401 0.2923
16
Frame 23
C 0.3300 -0.0633 -0.8043
C 1.4218 0.8661 -0.5657
H 0.1584 -0.3198 -1.8646
C 1.4621 2.1048 -1.0554
H 2.2419 0.4774 0.0643
H 2.3059 2.7800 -0.8641
H 0.6608 2.5253 -1.6762
C -0.4476 -0.5927 0.1540
C -1.5388 -1.5445 -0.1709
C -0.2994 -0.2740 1.5941
H -1.0874 0.4588 1.9024
H 0.7008 0.1741 1.8141
H -0.4203 -1.1969 2.2141
H -1.6515 -1.6856 -1.2734
H -2.5094 -1.1688 0.2392
H -1.3272 -2.5408 0.2923
16
Frame 24
C 0.3339 -0.0668 -0.8129
C 1.4255 0.8633 -0.5735
H 0.1645 -0.3239 -1.8734
C 1.4423 2.1190 -1.0182
H 2.2666 0.4578 0.0170
H 2.2868 2.7938 -0.8278
H 0.6200 2.5553 -1.5994
C -0.4440 -0.5958 0.1451
C -1.5357 -1.5471 -0.1792
C -0.2937 -0.2777 1.5852
H -1.0855 0.4498 1.8971
H 0.7044 0.1772 1.8021
H -0.4055 -1.2024 2.2041
H -1.6448 -1.6929 -1.2815
H -2.5070 -1.1677 0.2258
H -1.3277 -2.5417 0.2893
16
Frame 25
C 0.3398 -0.0712 -0.8190
C 1.4345 0.8561 -0.5810
H 0.1723 -0.3304 -1.8794
C 1.4345 2.1258 -0.9848
H 2.2943 0.4342 -0.0302
H 2.2819 2.7976 -0.7971
H 0.5946 2.5775 -1.5283
C -0.4430 -0.5943 0.1377
C -1.5377 -1.5421 -0.1878
C -0.2940 -0.2792 1.5785
H -1.1369 0.3765 1.9128
H 0.6674 0.2520 1.7855
H -0.3206 -1.2175 2.1866
H -1.6529 -1.6792 -1.2905
H -2.5064 -1.1653 0.2252
H -1.3278 -2.5404 0.2717
16
Frame 26
C 0.3433 -0.0738 -0.8282
C 1.4379 0.8539 -0.5895
H 0.1784 -0.3343 -1.8886
C 1.4169 2.1373 -0.9457
H 2.3166 0.4183 -0.0803
H 2.2654 2.8081 -0.7594
H 0.5578 2.6020 -1.4467
C -0.4396 -0.5969 0.1283
C -1.5348 -1.5443 -0.1965
C -0.2891 -0.2818 1.5691
H -1.1357 0.3678 1.9065
H 0.6695 0.2554 1.7735
H -0.3074 -1.2211 2.1762
H -1.6479 -1.6847 -1.2991
H -2.5039 -1.1644 0.2134
H -1.3275 -2.5415 0.2669
16
Frame 27
C 0.3465 -0.0759 -0.8368
C 1.4415 0.8518 -0.5983
H 0.1841 -0.3380 -1.8973
C 1.4019 2.1470 -0.9066
H 2.3382 0.4038 -0.1327
H 2.2523 2.8161 -0.7227
H 0.5250 2.6237 -1.3638
C -0.4371 -0.5984 0.1193
C -1.5321 -1.5460 -0.2053
C -0.2860 -0.2836 1.5601
H -1.1388 0.3557 1.9014
H 0.6675 0.2636 1.7623
H -0.2917 -1.2242 2.1654
H -1.6456 -1.6862 -1.3079
H -2.5011 -1.1663 0.2049
H -1.3245 -2.5433 0.2579
16
Frame 28
C 0.3492 -0.0771 -0.8448
C 1.4451 0.8500 -0.6076
H 0.1889 -0.3411 -1.9052
C 1.3894 2.1552 -0.8673
H 2.3591 0.3905 -0.1893
H 2.2423 2.8223 -0.6876
H 0.4959 2.6433 -1.2780
C -0.4352 -0.5990 0.1108
C -1.5293 -1.5476 -0.2143
C -0.2847 -0.2847 1.5518
H -1.1451 0.3423 1.8968
H 0.6623 0.2744 1.7523
H -0.2763 -1.2269 2.1550
H -1.6440 -1.6858 -1.3171
H -2.4984 -1.1704 0.1980
H -1.3194 -2.5455 0.2464
16
Frame 29
C 0.3512 -0.0777 -0.8526
C 1.4485 0.8485 -0.6173
H 0.1931 -0.3433 -1.9131
C 1.3788 2.1620 -0.8270
H 2.3787 0.3785 -0.2495
H 2.2352 2.8262 -0.6529
H 0.4699 2.6606 -1.1876
C -0.4338 -0.5995 0.1022
C -1.5273 -1.5486 -0.2236
C -0.2835 -0.2860 1.5435
H -1.1547 0.3224 1.8943
H 0.6528 0.2916 1.7414
H -0.2535 -1.2297 2.1435
H -1.6393 -1.6889 -1.3264
H -2.4973 -1.1704 0.1855
H -1.3186 -2.5456 0.2396
16
Frame 30
C 0.3524 -0.0774 -0.8609
C 1.4519 0.8470 -0.6276
H 0.1961 -0.3444 -1.9214
C 1.3698 2.1669 -0.7852
H 2.3976 0.3679 -0.3145
H 2.2300 2.8281 -0.6186
H 0.4457 2.6746 -1.0910
C -0.4325 -0.5997 0.0936
C -1.5254 -1.5492 -0.2331
C -0.2827 -0.2872 1.5351
H -1.1657 0.2994 1.8923
H 0.6402 0.3116 1.7300
H -0.2276 -1.2313 2.1316
H -1.6310 -1.6960 -1.3357
H -2.4974 -1.1667 0.1677
H -1.3214 -2.5436 0.2376
16
Frame 31
C 0.3533 -0.0769 -0.8703
C 1.4552 0.8448 -0.6382
H 0.1977 -0.3446 -1.9307
C 1.3630 2.1692 -0.7423
H 2.4132 0.3590 -0.3786
H 2.2262 2.8280 -0.5812
H 0.4270 2.6837 -0.9938
C -0.4315 -0.5993 0.0841
C -1.5245 -1.5488 -0.2425
C -0.2820 -0.2872 1.5258
H -1.1811 0.2696 1.8915
H 0.6235 0.3397 1.7170
H -0.1925 -1.2323 2.1177
H -1.6233 -1.7037 -1.3445
H -2.4981 -1.1611 0.1490
H -1.3260 -2.5400 0.2370
16
Frame 32
C 0.3529 -0.0750 -0.8803
C 1.4578 0.8435 -0.6494
H 0.1972 -0.3431 -1.9407
C 1.3572 2.1702 -0.6978
H 2.4265 0.3525 -0.4451
H 2.2234 2.8263 -0.5425
H 0.4106 2.6893 -0.8939
C -0.4307 -0.5987 0.0744
C -1.5237 -1.5481 -0.2520
C -0.2807 -0.2876 1.5163
H -1.1940 0.2394 1.8910
H 0.6068 0.3657 1.7038
H -0.1576 -1.2322 2.1031
H -1.6107 -1.7174 -1.3529
H -2.5001 -1.1512 0.1230
H -1.3350 -2.5336 0.2430
16
Frame 33
C 0.3522 -0.0726 -0.8898
C 1.4594 0.8435 -0.6608
H 0.1967 -0.3412 -1.9502
C 1.3524 2.1705 -0.6536
H 2.4370 0.3500 -0.5118
H 2.2212 2.8243 -0.5033
H 0.3976 2.6921 -0.7966
C -0.4301 -0.5978 0.0651
C -1.5230 -1.5475 -0.2616
C -0.2795 -0.2887 1.5073
H -1.2033 0.2136 1.8897
H 0.5926 0.3856 1.6922
H -0.1292 -1.2323 2.0892
H -1.5981 -1.7307 -1.3611
H -2.5020 -1.1419 0.0969
H -1.3440 -2.5271 0.2483
16
Frame 34
C 0.3517 -0.0702 -0.8988
C 1.4609 0.8438 -0.6718
H 0.1961 -0.3392 -1.9592
C 1.3493 2.1690 -0.6095
H 2.4453 0.3501 -0.5786
H 2.2203 2.8211 -0.4646
H 0.3882 2.6910 -0.7003
C -0.4297 -0.5967 0.0560
C -1.5224 -1.5465 -0.2713
C -0.2790 -0.2892 1.4985
H -1.2126 0.1892 1.8877
H 0.5776 0.4052 1.6815
H -0.1033 -1.2312 2.0759
H -1.5879 -1.7406 -1.3695
H -2.5034 -1.1343 0.0738
H -1.3513 -2.5213 0.2502
16
Frame 35
C 0.3517 -0.0680 -0.9077
C 1.4624 0.8443 -0.6822
H 0.1967 -0.3378 -1.9680
C 1.3471 2.1656 -0.5660
H 2.4520 0.3533 -0.6436
H 2.2197 2.8167 -0.4260
H 0.3811 2.6850 -0.6052
C -0.4296 -0.5952 0.0469
C -1.5220 -1.5450 -0.2811
C -0.2791 -0.2891 1.4897
H -1.2208 0.1684 1.8847
H 0.5639 0.4226 1.6710
H -0.0813 -1.2293 2.0631
H -1.5810 -1.7461 -1.3784
H -2.5043 -1.1285 0.0550
H -1.3564 -2.5167 0.2478
16
Frame 36
C 0.3517 -0.0657 -0.9164
C 1.4644 0.8442 -0.6924
H 0.1970 -0.3363 -1.9767
C 1.3472 2.1597 -0.5225
H 2.4567 0.3584 -0.7089
H 2.2209 2.8104 -0.3878
H 0.3777 2.6741 -0.5091
C -0.4299 -0.5931 0.0379
C -1.5224 -1.5426 -0.2911
C -0.2800 -0.2881 1.4810
H -1.2312 0.1423 1.8829
H 0.5447 0.4451 1.6602
H -0.0537 -1.2247 2.0495
H -1.5749 -1.7506 -1.3875
H -2.5059 -1.1217 0.0360
H -1.3624 -2.5113 0.2450
16
Frame 37
C 0.3517 -0.0638 -0.9254
C 1.4667 0.8432 -0.7021
H 0.1981 -0.3356 -1.9855
C 1.3495 2.1509 -0.4794
H 2.4603 0.3643 -0.7718
H 2.2243 2.8012 -0.3498
H 0.3788 2.6583 -0.4117
C -0.4312 -0.5903 0.0285
C -1.5239 -1.5392 -0.3014
C -0.2819 -0.2855 1.4716
H -1.2446 0.1087 1.8831
H 0.5175 0.4761 1.6474
H -0.0172 -1.2158 2.0340
H -1.5721 -1.7517 -1.3972
H -2.5082 -1.1151 0.0198
H -1.3679 -2.5058 0.2398
16
Frame 38
C 0.3515 -0.0610 -0.9340
C 1.4673 0.8449 -0.7124
H 0.1983 -0.3341 -1.9939
C 1.3512 2.1427 -0.4377
H 2.4611 0.3751 -0.8312
H 2.2268 2.7928 -0.3126
H 0.3808 2.6415 -0.3200
C -0.4319 -0.5877 0.0196
C -1.5244 -1.5365 -0.3114
C -0.2831 -0.2845 1.4631
H -1.2510 0.0911 1.8798
H 0.5026 0.4914 1.6376
H 0.0006 -1.2115 2.0216
H -1.5692 -1.7518 -1.4068
H -2.5094 -1.1105 0.0053
H -1.3712 -2.5019 0.2329
16
Frame 39
C 0.3512 -0.0581 -0.9427
C 1.4674 0.8472 -0.7227
H 0.1977 -0.3320 -2.0025
C 1.3534 2.1334 -0.3965
H 2.4596 0.3890 -0.8894
H 2.2292 2.7838 -0.2749
H 0.3845 2.6214 -0.2305
C -0.4324 -0.5850 0.0107
C -1.5245 -1.5341 -0.3211
C -0.2844 -0.2830 1.4546
H -1.2550 0.0832 1.8732
H 0.4944 0.4998 1.6294
H 0.0085 -1.2084 2.0109
H -1.5681 -1.7499 -1.4164
H -2.5097 -1.1082 -0.0058
H -1.3718 -2.4991 0.2236
16
Frame 40
C 0.3506 -0.0544 -0.9513
C 1.4670 0.8506 -0.7331
H 0.1966 -0.3291 -2.0109
C 1.3562 2.1232 -0.3561
H 2.4562 0.4061 -0.9478
H 2.2318 2.7745 -0.2375
H 0.3900 2.5985 -0.1432
C -0.4329 -0.5820 0.0021
C -1.5243 -1.5317 -0.3306
C -0.2858 -0.2819 1.4464
H -1.2572 0.0811 1.8656
H 0.4912 0.5024 1.6228
H 0.0092 -1.2074 2.0013
H -1.5658 -1.7488 -1.4257
H -2.5101 -1.1053 -0.0178
H -1.3727 -2.4959 0.2157
16
Frame 41
C 0.3502 -0.0505 -0.9596
C 1.4660 0.8552 -0.7436
H 0.1958 -0.3264 -2.0188
C 1.3588 2.1125 -0.3167
H 2.4510 0.4271 -1.0056
H 2.2334 2.7656 -0.2009
H 0.3961 2.5724 -0.0587
C -0.4328 -0.5790 -0.0061
C -1.5236 -1.5291 -0.3399
C -0.2869 -0.2811 1.4387
H -1.2564 0.0898 1.8552
H 0.4965 0.4959 1.6185
H -0.0017 -1.2098 1.9936
H -1.5641 -1.7466 -1.4349
H -2.5099 -1.1028 -0.0280
H -1.3724 -2.4932 0.2069
16
Frame 42
C 0.3521 -0.0483 -0.9656
C 1.4647 0.8613 -0.7525
H 0.1990 -0.3267 -2.0245
C 1.3593 2.1031 -0.2815
H 2.4455 0.4533 -1.0595
H 2.2310 2.7610 -0.1718
H 0.4013 2.5444 0.0226
C -0.4322 -0.5768 -0.0130
C -1.5213 -1.5282 -0.3491
C -0.2892 -0.2802 1.4323
H -1.2475 0.1314 1.8369
H 0.5232 0.4650 1.6186
H -0.0483 -1.2179 1.9931
H -1.5724 -1.7296 -1.4468
H -2.5065 -1.1123 -0.0203
H -1.3587 -2.4995 0.1813
16
Frame 43
C 0.3525 -0.0451 -0.9722
C 1.4630 0.8672 -0.7621
H 0.1999 -0.3257 -2.0307
C 1.3636 2.0917 -0.2460
H 2.4371 0.4790 -1.1123
H 2.2337 2.7527 -0.1418
H 0.4130 2.5145 0.1032
C -0.4324 -0.5740 -0.0201
C -1.5195 -1.5270 -0.3583
C -0.2928 -0.2782 1.4256
H -1.2427 0.1620 1.8207
H 0.5389 0.4443 1.6178
H -0.0843 -1.2211 1.9908
H -1.5812 -1.7132 -1.4582
H -2.5037 -1.1220 -0.0129
H -1.3452 -2.5050 0.1565
16
Frame 44
C 0.3525 -0.0413 -0.9801
C 1.4596 0.8747 -0.7717
H 0.2007 -0.3245 -2.0381
C 1.3646 2.0794 -0.2096
H 2.4266 0.5099 -1.1648
H 2.2313 2.7450 -0.1072
H 0.4201 2.4799 0.1811
C -0.4314 -0.5718 -0.0278
C -1.5148 -1.5291 -0.3663
C -0.2956 -0.2740 1.4178
H -1.2200 0.2331 1.7922
H 0.5790 0.3928 1.6189
H -0.1609 -1.2230 1.9945
H -1.5960 -1.6914 -1.4687
H -2.4962 -1.1434 0.0073
H -1.3196 -2.5163 0.1225
16
Frame 45
C 0.3512 -0.0366 -0.9879
C 1.4560 0.8818 -0.7813
H 0.1994 -0.3218 -2.0454
C 1.3695 2.0647 -0.1730
H 2.4130 0.5409 -1.2178
H 2.2339 2.7335 -0.0725
H 0.4338 2.4431 0.2590
C -0.4315 -0.5692 -0.0353
C -1.5111 -1.5306 -0.3744
C -0.2995 -0.2691 1.4100
H -1.2012 0.2898 1.7672
H 0.6062 0.3528 1.6191
H -0.2235 -1.2193 1.9958
H -1.6092 -1.6723 -1.4784
H -2.4900 -1.1626 0.0233
H -1.2972 -2.5252 0.0917
16
Frame 46
C 0.3502 -0.0326 -0.9960
C 1.4508 0.8902 -0.7900
H 0.1993 -0.3200 -2.0529
C 1.3710 2.0498 -0.1372
H 2.3975 0.5771 -1.2676
H 2.2310 2.7246 -0.0393
H 0.4454 2.4010 0.3373
C -0.4309 -0.5676 -0.0430
C -1.5064 -1.5335 -0.3822
C -0.3018 -0.2635 1.4016
H -1.1619 0.3704 1.7349
H 0.6463 0.2872 1.6216
H -0.3130 -1.2088 1.9995
H -1.6257 -1.6511 -1.4867
H -2.4807 -1.1871 0.0442
H -1.2711 -2.5359 0.0559
16
Frame 47
C 0.3483 -0.0277 -1.0037
C 1.4454 0.8988 -0.7991
H 0.1973 -0.3163 -2.0603
C 1.3753 2.0338 -0.1026
H 2.3799 0.6138 -1.3164
H 2.2314 2.7138 -0.0078
H 0.4622 2.3571 0.4141
C -0.4312 -0.5652 -0.0504
C -1.5040 -1.5338 -0.3901
C -0.3031 -0.2601 1.3940
H -1.1284 0.4266 1.7114
H 0.6732 0.2353 1.6231
H -0.3782 -1.1984 1.9983
H -1.6327 -1.6407 -1.4946
H -2.4764 -1.1978 0.0487
H -1.2589 -2.5392 0.0353
16
Frame 48
C 0.3444 -0.0211 -1.0115
C 1.4380 0.9090 -0.8082
H 0.1918 -0.3096 -2.0679
C 1.3812 2.0169 -0.0680
H 2.3581 0.6533 -1.3650
H 2.2347 2.7004 0.0255
H 0.4816 2.3139 0.4871
C -0.4321 -0.5628 -0.0576
C -1.5022 -1.5341 -0.3979
C -0.3033 -0.2583 1.3868
H -1.0901 0.4779 1.6908
H 0.6975 0.1815 1.6241
H -0.4394 -1.1861 1.9961
H -1.6315 -1.6397 -1.5025
H -2.4751 -1.2017 0.0425
H -1.2536 -2.5395 0.0256
16
Frame 49
C 0.3404 -0.0141 -1.0182
C 1.4304 0.9198 -0.8170
H 0.1858 -0.3021 -2.0745
C 1.3896 2.0001 -0.0359
H 2.3349 0.6934 -1.4113
H 2.2413 2.6862 0.0548
H 0.5055 2.2714 0.5561
C -0.4336 -0.5596 -0.0641
C -1.5022 -1.5322 -0.4058
C -0.3033 -0.2587 1.3809
H -1.0587 0.5126 1.6775
H 0.7143 0.1367 1.6250
H -0.4848 -1.1778 1.9915
H -1.6248 -1.6439 -1.5106
H -2.4776 -1.1961 0.0267
H -1.2573 -2.5356 0.0250
16
Frame 50
C 0.3363 -0.0070 -1.0235
C 1.4230 0.9307 -0.8256
H 0.1797 -0.2947 -2.0797
C 1.4012 1.9836 -0.0068
H 2.3101 0.7329 -1.4550
H 2.2518 2.6718 0.0793
H 0.5355 2.2307 0.6215
C -0.4359 -0.5560 -0.0696
C -1.5031 -1.5293 -0.4138
C -0.3048 -0.2601 1.3762
H -1.0342 0.5374 1.6687
H 0.7249 0.0988 1.6267
H -0.5222 -1.1720 1.9861
H -1.6175 -1.6474 -1.5189
H -2.4813 -1.1888 0.0092
H -1.2634 -2.5305 0.0250
