28
Frame 1
C 1.8314 -1.0866 -0.6439
C 2.9300 -0.1181 -0.4671
H 1.6667 -1.3922 -1.6640
C 2.9016 0.9472 0.3136
H 3.8054 -0.3023 -1.0677
H 3.7438 1.6097 0.3856
H 2.0367 1.1952 0.8976
C -0.1311 2.5747 -0.9732
H 0.2341 2.9454 -0.0364
C -0.9929 1.5803 -1.0089
H 0.2348 3.0408 -1.8660
C -1.4326 0.9573 0.2623
C 1.0634 -1.6172 0.2979
H -1.3618 1.1942 -1.9339
C -0.0720 -2.5561 -0.0613
C 1.1946 -1.3528 1.7837
H 0.4495 -0.6280 2.0937
H 2.1731 -0.9712 2.0368
H 1.0228 -2.2707 2.3367
H -0.1135 -2.7450 -1.1279
H -1.0137 -2.1183 0.2536
H 0.0423 -3.5059 0.4523
O -2.4120 0.0200 0.2000
O -0.9568 1.2356 1.3339
C -3.2215 -0.2317 -0.9693
H -4.0045 -0.8902 -0.6336
H -2.6476 -0.7201 -1.7437
H -3.6552 0.6819 -1.3517
