27
Frame 1
C 2.6265 -0.3498 0.1097
C 1.9414 0.9056 -0.4539
N 2.7080 2.1135 -0.1162
C 0.4718 0.9161 0.0164
H 1.9443 0.8326 -1.5817
H 0.4237 1.0011 1.1333
C -0.2216 -0.3823 -0.3973
H -0.1019 1.7772 -0.4147
H 2.6318 -0.3050 1.2300
H 3.6933 -0.3793 -0.2349
C 1.9186 -1.6078 -0.3460
H 2.4379 -2.5024 0.0872
H 1.9806 -1.6925 -1.4631
C 0.4645 -1.6261 0.0848
H 0.3906 -1.6746 1.2040
H -0.0517 -2.5326 -0.3247
H -0.5698 -0.4121 -1.4527
O -1.6386 -0.3750 0.4557
H 2.6767 2.2877 0.8677
H 2.3549 2.9096 -0.6064
S -2.9149 0.3655 -0.2419
C -4.1268 -0.1026 0.8203
H -3.7378 -0.7142 1.6757
H -4.9121 -0.7288 0.3263
H -4.6546 0.7704 1.2813
O -3.0651 -0.2229 -1.4896
O -2.6697 1.7287 -0.1694
27
Frame 2
C 2.6342 -0.3502 0.1049
C 1.9657 0.9064 -0.4645
N 2.7321 2.1115 -0.1406
C 0.4569 0.9259 0.0445
H 1.9340 0.8277 -1.5886
H 0.4374 0.9952 1.1600
C -0.2178 -0.3691 -0.3880
H -0.1091 1.7938 -0.3750
H 2.6371 -0.3014 1.2252
H 3.7021 -0.3923 -0.2359
C 1.9169 -1.6042 -0.3478
H 2.4334 -2.5016 0.0831
H 1.9736 -1.6891 -1.4652
C 0.4648 -1.6156 0.0896
H 0.3955 -1.6651 1.2091
H -0.0576 -2.5193 -0.3185
H -0.5664 -0.3920 -1.4430
O -1.6532 -0.3803 0.4627
H 2.7165 2.2948 0.8414
H 2.3879 2.9066 -0.6379
S -2.9257 0.3557 -0.2390
C -4.1441 -0.1150 0.8155
H -3.7618 -0.7406 1.6637
H -4.9342 -0.7277 0.3126
H -4.6638 0.7570 1.2865
O -3.0688 -0.2315 -1.4890
O -2.6860 1.7204 -0.1657
27
Frame 3
C 2.6421 -0.3509 0.0997
C 1.9896 0.9069 -0.4754
N 2.7545 2.1095 -0.1643
C 0.4419 0.9348 0.0719
H 1.9241 0.8232 -1.5951
H 0.4495 0.9894 1.1853
C -0.2138 -0.3564 -0.3789
H -0.1160 1.8093 -0.3371
H 2.6433 -0.2980 1.2200
H 3.7109 -0.4051 -0.2380
C 1.9156 -1.6008 -0.3497
H 2.4293 -2.5008 0.0792
H 1.9670 -1.6864 -1.4673
C 0.4654 -1.6054 0.0942
H 0.4006 -1.6560 1.2140
H -0.0629 -2.5066 -0.3124
H -0.5630 -0.3728 -1.4336
O -1.6676 -0.3872 0.4689
H 2.7543 2.3014 0.8155
H 2.4189 2.9030 -0.6687
S -2.9354 0.3473 -0.2346
C -4.1611 -0.1271 0.8109
H -3.7853 -0.7611 1.6554
H -4.9514 -0.7316 0.2988
H -4.6788 0.7436 1.2863
O -3.0719 -0.2354 -1.4879
O -2.6999 1.7130 -0.1570
27
Frame 4
C 2.6504 -0.3516 0.0942
C 2.0134 0.9068 -0.4879
N 2.7761 2.1073 -0.1898
C 0.4274 0.9435 0.0987
H 1.9146 0.8177 -1.6023
H 0.4623 0.9850 1.2094
C -0.2099 -0.3438 -0.3688
H -0.1230 1.8240 -0.3004
H 2.6498 -0.2932 1.2143
H 3.7198 -0.4181 -0.2405
C 1.9143 -1.5977 -0.3506
H 2.4252 -2.5000 0.0768
H 1.9600 -1.6847 -1.4684
C 0.4662 -1.5951 0.1003
H 0.4063 -1.6460 1.2204
H -0.0683 -2.4937 -0.3040
H -0.5596 -0.3541 -1.4232
O -1.6822 -0.3942 0.4751
H 2.7934 2.3067 0.7878
H 2.4476 2.8994 -0.7002
S -2.9445 0.3412 -0.2285
C -4.1786 -0.1408 0.8048
H -3.8100 -0.7856 1.6442
H -4.9682 -0.7358 0.2810
H -4.6953 0.7269 1.2867
O -3.0733 -0.2320 -1.4876
O -2.7140 1.7078 -0.1413
27
Frame 5
C 2.6546 -0.3549 0.0885
C 2.0284 0.9029 -0.5020
N 2.7955 2.1008 -0.2190
C 0.4258 0.9539 0.1093
H 1.9094 0.8061 -1.6125
H 0.4778 0.9955 1.2180
C -0.2091 -0.3312 -0.3575
H -0.1183 1.8375 -0.2881
H 2.6575 -0.2873 1.2081
H 3.7228 -0.4338 -0.2479
C 1.9072 -1.5984 -0.3442
H 2.4144 -2.5015 0.0862
H 1.9459 -1.6929 -1.4615
C 0.4618 -1.5835 0.1151
H 0.4081 -1.6278 1.2357
H -0.0807 -2.4810 -0.2808
H -0.5624 -0.3431 -1.4107
O -1.6880 -0.3815 0.4896
H 2.8264 2.3078 0.7563
H 2.4719 2.8909 -0.7350
S -2.9476 0.3599 -0.2077
C -4.1918 -0.1702 0.7882
H -3.8270 -0.8300 1.6172
H -4.9598 -0.7646 0.2339
H -4.7334 0.6748 1.2814
O -3.0499 -0.1740 -1.4860
O -2.7393 1.7254 -0.0745
27
Frame 6
C 2.6589 -0.3582 0.0828
C 2.0434 0.8990 -0.5162
N 2.8150 2.0943 -0.2482
C 0.4242 0.9644 0.1198
H 1.9042 0.7945 -1.6227
H 0.4932 1.0059 1.2265
C -0.2083 -0.3186 -0.3462
H -0.1136 1.8510 -0.2758
H 2.6651 -0.2815 1.2019
H 3.7258 -0.4494 -0.2552
C 1.9001 -1.5991 -0.3377
H 2.4036 -2.5030 0.0956
H 1.9317 -1.7011 -1.4547
C 0.4574 -1.5719 0.1299
H 0.4098 -1.6095 1.2511
H -0.0931 -2.4683 -0.2577
H -0.5652 -0.3322 -1.3981
O -1.6938 -0.3688 0.5041
H 2.8594 2.3089 0.7247
H 2.4962 2.8824 -0.7697
S -2.9508 0.3786 -0.1868
C -4.2050 -0.1996 0.7716
H -3.8441 -0.8744 1.5901
H -4.9514 -0.7934 0.1869
H -4.7715 0.6228 1.2760
O -3.0266 -0.1160 -1.4844
O -2.7646 1.7430 -0.0077
27
Frame 7
C 2.6672 -0.3619 0.0742
C 2.0695 0.8964 -0.5331
N 2.8421 2.0874 -0.2798
C 0.4149 0.9786 0.1459
H 1.8957 0.7871 -1.6322
H 0.5122 1.0112 1.2486
C -0.2049 -0.2992 -0.3316
H -0.1135 1.8715 -0.2419
H 2.6759 -0.2772 1.1928
H 3.7327 -0.4697 -0.2641
C 1.8931 -1.5968 -0.3364
H 2.3918 -2.5038 0.0957
H 1.9148 -1.7026 -1.4533
C 0.4545 -1.5558 0.1426
H 0.4152 -1.5904 1.2642
H -0.1066 -2.4487 -0.2383
H -0.5646 -0.3087 -1.3824
O -1.7073 -0.3628 0.5177
H 2.9105 2.3067 0.6900
H 2.5305 2.8750 -0.8054
S -2.9608 0.3818 -0.1721
C -4.2236 -0.2262 0.7583
H -3.8664 -0.9042 1.5754
H -4.9495 -0.8258 0.1537
H -4.8119 0.5822 1.2603
O -3.0164 -0.0899 -1.4804
O -2.7951 1.7460 0.0318
27
Frame 8
C 2.6710 -0.3652 0.0687
C 2.0837 0.8933 -0.5447
N 2.8590 2.0812 -0.3013
C 0.4128 0.9890 0.1576
H 1.8916 0.7803 -1.6393
H 0.5250 1.0202 1.2578
C -0.2036 -0.2862 -0.3216
H -0.1097 1.8849 -0.2285
H 2.6824 -0.2742 1.1869
H 3.7352 -0.4837 -0.2706
C 1.8866 -1.5963 -0.3334
H 2.3818 -2.5050 0.0994
H 1.9017 -1.7062 -1.4500
C 0.4509 -1.5447 0.1533
H 0.4175 -1.5756 1.2752
H -0.1175 -2.4355 -0.2217
H -0.5666 -0.2952 -1.3713
O -1.7129 -0.3518 0.5303
H 2.9419 2.3034 0.6662
H 2.5519 2.8685 -0.8295
S -2.9660 0.3901 -0.1576
C -4.2333 -0.2487 0.7458
H -3.8781 -0.9315 1.5596
H -4.9410 -0.8500 0.1223
H -4.8407 0.5445 1.2487
O -3.0024 -0.0574 -1.4750
O -2.8211 1.7522 0.0724
27
Frame 9
C 2.6748 -0.3686 0.0633
C 2.0978 0.8902 -0.5562
N 2.8759 2.0749 -0.3228
C 0.4106 0.9993 0.1693
H 1.8874 0.7736 -1.6463
H 0.5377 1.0292 1.2671
C -0.2024 -0.2732 -0.3116
H -0.1058 1.8982 -0.2150
H 2.6890 -0.2711 1.1810
H 3.7377 -0.4978 -0.2772
C 1.8801 -1.5958 -0.3304
H 2.3718 -2.5061 0.1031
H 1.8886 -1.7099 -1.4467
C 0.4474 -1.5336 0.1640
H 0.4197 -1.5608 1.2862
H -0.1284 -2.4222 -0.2052
H -0.5686 -0.2818 -1.3601
O -1.7185 -0.3408 0.5428
H 2.9732 2.3001 0.6425
H 2.5733 2.8619 -0.8535
S -2.9712 0.3984 -0.1430
C -4.2430 -0.2712 0.7332
H -3.8898 -0.9588 1.5439
H -4.9324 -0.8743 0.0910
H -4.8695 0.5068 1.2371
O -2.9883 -0.0249 -1.4697
O -2.8471 1.7584 0.1131
27
Frame 10
C 2.6782 -0.3727 0.0576
C 2.1122 0.8857 -0.5696
N 2.8938 2.0668 -0.3475
C 0.4096 1.0118 0.1795
H 1.8835 0.7649 -1.6545
H 0.5516 1.0425 1.2745
C -0.2014 -0.2584 -0.3007
H -0.1000 1.9134 -0.2050
H 2.6964 -0.2672 1.1746
H 3.7392 -0.5142 -0.2846
C 1.8719 -1.5956 -0.3249
H 2.3593 -2.5072 0.1106
H 1.8728 -1.7157 -1.4406
C 0.4427 -1.5202 0.1777
H 0.4216 -1.5417 1.3002
H -0.1416 -2.4067 -0.1833
H -0.5715 -0.2678 -1.3477
O -1.7239 -0.3265 0.5570
H 3.0071 2.2952 0.6149
H 2.5966 2.8530 -0.8817
S -2.9771 0.4105 -0.1239
C -4.2513 -0.2984 0.7169
H -3.8995 -0.9992 1.5164
H -4.9212 -0.8959 0.0502
H -4.8971 0.4580 1.2281
O -2.9721 0.0206 -1.4609
O -2.8798 1.7651 0.1668
27
Frame 11
C 2.6817 -0.3768 0.0519
C 2.1267 0.8811 -0.5830
N 2.9118 2.0587 -0.3722
C 0.4086 1.0243 0.1897
H 1.8795 0.7561 -1.6627
H 0.5654 1.0558 1.2818
C -0.2004 -0.2435 -0.2898
H -0.0942 1.9285 -0.1951
H 2.7038 -0.2632 1.1681
H 3.7406 -0.5305 -0.2919
C 1.8636 -1.5955 -0.3195
H 2.3467 -2.5084 0.1180
H 1.8571 -1.7214 -1.4345
C 0.4380 -1.5069 0.1914
H 0.4234 -1.5225 1.3141
H -0.1547 -2.3911 -0.1614
H -0.5744 -0.2538 -1.3354
O -1.7293 -0.3122 0.5713
H 3.0409 2.2904 0.5873
H 2.6199 2.8442 -0.9099
S -2.9830 0.4226 -0.1047
C -4.2597 -0.3257 0.7005
H -3.9093 -1.0396 1.4889
H -4.9100 -0.9175 0.0094
H -4.9247 0.4092 1.2191
O -2.9558 0.0660 -1.4520
O -2.9124 1.7718 0.2205
27
Frame 12
C 2.6845 -0.3822 0.0459
C 2.1423 0.8766 -0.5951
N 2.9323 2.0491 -0.3935
C 0.4097 1.0397 0.2016
H 1.8765 0.7501 -1.6693
H 0.5813 1.0706 1.2906
C -0.1994 -0.2242 -0.2783
H -0.0850 1.9476 -0.1827
H 2.7109 -0.2623 1.1614
H 3.7408 -0.5494 -0.2998
C 1.8526 -1.5943 -0.3160
H 2.3300 -2.5101 0.1218
H 1.8377 -1.7242 -1.4304
C 0.4313 -1.4908 0.2039
H 0.4239 -1.5022 1.3266
H -0.1713 -2.3711 -0.1417
H -0.5775 -0.2336 -1.3224
O -1.7345 -0.2916 0.5868
H 3.0789 2.2812 0.5629
H 2.6471 2.8352 -0.9332
S -2.9918 0.4296 -0.0900
C -4.2654 -0.3541 0.6863
H -3.9124 -1.0747 1.4670
H -4.8960 -0.9448 -0.0231
H -4.9495 0.3604 1.2075
O -2.9437 0.0950 -1.4427
O -2.9535 1.7745 0.2560
27
Frame 13
C 2.6872 -0.3876 0.0399
C 2.1579 0.8722 -0.6072
N 2.9529 2.0394 -0.4147
C 0.4109 1.0552 0.2134
H 1.8734 0.7442 -1.6759
H 0.5973 1.0854 1.2994
C -0.1984 -0.2049 -0.2668
H -0.0758 1.9666 -0.1703
H 2.7179 -0.2613 1.1546
H 3.7409 -0.5683 -0.3076
C 1.8416 -1.5932 -0.3125
H 2.3134 -2.5118 0.1256
H 1.8184 -1.7270 -1.4264
C 0.4247 -1.4747 0.2163
H 0.4244 -1.4819 1.3391
H -0.1879 -2.3511 -0.1219
H -0.5805 -0.2134 -1.3094
O -1.7397 -0.2709 0.6023
H 3.1169 2.2720 0.5385
H 2.6743 2.8261 -0.9565
S -3.0007 0.4366 -0.0754
C -4.2711 -0.3826 0.6721
H -3.9155 -1.1098 1.4452
H -4.8821 -0.9722 -0.0555
H -4.9744 0.3117 1.1959
O -2.9315 0.1240 -1.4335
O -2.9946 1.7772 0.2914
27
Frame 14
C 2.6891 -0.3930 0.0351
C 2.1730 0.8672 -0.6191
N 2.9716 2.0297 -0.4342
C 0.4114 1.0704 0.2239
H 1.8714 0.7382 -1.6821
H 0.6112 1.0999 1.3067
C -0.1973 -0.1860 -0.2574
H -0.0670 1.9852 -0.1600
H 2.7231 -0.2602 1.1490
H 3.7406 -0.5867 -0.3130
C 1.8309 -1.5919 -0.3086
H 2.2966 -2.5130 0.1308
H 1.8010 -1.7299 -1.4218
C 0.4179 -1.4589 0.2268
H 0.4230 -1.4626 1.3497
H -0.2039 -2.3312 -0.1054
H -0.5836 -0.1932 -1.2984
O -1.7452 -0.2521 0.6148
H 3.1525 2.2620 0.5155
H 2.7005 2.8166 -0.9788
S -3.0098 0.4433 -0.0612
C -4.2744 -0.4097 0.6589
H -3.9141 -1.1406 1.4262
H -4.8656 -1.0000 -0.0838
H -4.9956 0.2644 1.1837
O -2.9234 0.1547 -1.4240
O -3.0343 1.7774 0.3268
27
Frame 15
C 2.6911 -0.3984 0.0302
C 2.1880 0.8622 -0.6309
N 2.9903 2.0200 -0.4538
C 0.4119 1.0856 0.2344
H 1.8694 0.7321 -1.6883
H 0.6251 1.1144 1.3140
C -0.1962 -0.1671 -0.2480
H -0.0581 2.0038 -0.1496
H 2.7283 -0.2591 1.1434
H 3.7402 -0.6050 -0.3183
C 1.8202 -1.5907 -0.3047
H 2.2799 -2.5142 0.1360
H 1.7837 -1.7327 -1.4172
C 0.4111 -1.4431 0.2373
H 0.4216 -1.4433 1.3602
H -0.2198 -2.3112 -0.0889
H -0.5867 -0.1730 -1.2874
O -1.7508 -0.2332 0.6272
H 3.1880 2.2520 0.4924
H 2.7267 2.8072 -1.0011
S -3.0189 0.4499 -0.0470
C -4.2776 -0.4368 0.6457
H -3.9126 -1.1713 1.4072
H -4.8490 -1.0279 -0.1121
H -5.0167 0.2171 1.1714
O -2.9154 0.1854 -1.4145
O -3.0739 1.7776 0.3623
27
Frame 16
C 2.6922 -0.4049 0.0240
C 2.2025 0.8562 -0.6435
N 3.0091 2.0087 -0.4740
C 0.4138 1.1029 0.2459
H 1.8658 0.7266 -1.6945
H 0.6414 1.1314 1.3217
C -0.1954 -0.1459 -0.2360
H -0.0479 2.0244 -0.1384
H 2.7347 -0.2591 1.1362
H 3.7378 -0.6257 -0.3265
C 1.8068 -1.5891 -0.3006
H 2.2601 -2.5156 0.1404
H 1.7612 -1.7348 -1.4123
C 0.4033 -1.4251 0.2506
H 0.4217 -1.4210 1.3734
H -0.2382 -2.2884 -0.0674
H -0.5903 -0.1507 -1.2738
O -1.7563 -0.2096 0.6431
H 3.2266 2.2385 0.4677
H 2.7535 2.7964 -1.0236
S -3.0283 0.4566 -0.0319
C -4.2779 -0.4666 0.6299
H -3.9077 -1.2059 1.3840
H -4.8274 -1.0555 -0.1450
H -5.0361 0.1639 1.1560
O -2.9058 0.2167 -1.4028
O -3.1192 1.7757 0.3969
27
Frame 17
C 2.6952 -0.4099 0.0164
C 2.2165 0.8494 -0.6589
N 3.0215 1.9997 -0.4967
C 0.4110 1.1169 0.2597
H 1.8587 0.7202 -1.7017
H 0.6558 1.1455 1.3305
C -0.1933 -0.1294 -0.2229
H -0.0450 2.0406 -0.1243
H 2.7437 -0.2563 1.1273
H 3.7372 -0.6433 -0.3365
C 1.7974 -1.5879 -0.2955
H 2.2468 -2.5158 0.1465
H 1.7418 -1.7385 -1.4059
C 0.4001 -1.4098 0.2661
H 0.4274 -1.4004 1.3884
H -0.2504 -2.2699 -0.0421
H -0.5926 -0.1345 -1.2588
O -1.7641 -0.1998 0.6565
H 3.2629 2.2261 0.4385
H 2.7728 2.7869 -1.0493
S -3.0353 0.4630 -0.0126
C -4.2809 -0.4904 0.6108
H -3.9121 -1.2348 1.3599
H -4.8053 -1.0740 -0.1831
H -5.0583 0.1194 1.1306
O -2.8985 0.2578 -1.3873
O -3.1532 1.7692 0.4442
27
Frame 18
C 2.6982 -0.4149 0.0088
C 2.2305 0.8426 -0.6743
N 3.0339 1.9907 -0.5195
C 0.4082 1.1309 0.2736
H 1.8516 0.7137 -1.7088
H 0.6703 1.1596 1.3393
C -0.1912 -0.1129 -0.2098
H -0.0420 2.0568 -0.1102
H 2.7527 -0.2535 1.1184
H 3.7365 -0.6610 -0.3466
C 1.7881 -1.5867 -0.2905
H 2.2335 -2.5161 0.1527
H 1.7224 -1.7423 -1.3996
C 0.3968 -1.3946 0.2815
H 0.4331 -1.3798 1.4035
H -0.2627 -2.2513 -0.0168
H -0.5949 -0.1182 -1.2439
O -1.7720 -0.1900 0.6699
H 3.2993 2.2138 0.4093
H 2.7922 2.7774 -1.0751
S -3.0422 0.4695 0.0067
C -4.2839 -0.5141 0.5916
H -3.9166 -1.2638 1.3359
H -4.7831 -1.0926 -0.2212
H -5.0804 0.0750 1.1053
O -2.8911 0.2990 -1.3717
O -3.1872 1.7627 0.4916
27
Frame 19
C 2.7011 -0.4199 0.0012
C 2.2444 0.8358 -0.6898
N 3.0464 1.9817 -0.5423
C 0.4055 1.1450 0.2874
H 1.8444 0.7072 -1.7160
H 0.6847 1.1736 1.3482
C -0.1892 -0.0964 -0.1967
H -0.0391 2.0729 -0.0961
H 2.7617 -0.2506 1.1094
H 3.7359 -0.6786 -0.3566
C 1.7787 -1.5855 -0.2854
H 2.2202 -2.5163 0.1588
H 1.7030 -1.7460 -1.3933
C 0.3936 -1.3793 0.2969
H 0.4389 -1.3592 1.4185
H -0.2749 -2.2328 0.0085
H -0.5972 -0.1020 -1.2290
O -1.7799 -0.1802 0.6833
H 3.3357 2.2015 0.3801
H 2.8115 2.7679 -1.1009
S -3.0492 0.4760 0.0260
C -4.2869 -0.5379 0.5724
H -3.9210 -1.2928 1.3118
H -4.7609 -1.1111 -0.2593
H -5.1025 0.0305 1.0799
O -2.8837 0.3401 -1.3562
O -3.2211 1.7563 0.5389
27
Frame 20
C 2.7041 -0.4249 -0.0064
C 2.2584 0.8290 -0.7052
N 3.0588 1.9727 -0.5650
C 0.4027 1.1590 0.3012
H 1.8373 0.7007 -1.7232
H 0.6991 1.1877 1.3570
C -0.1871 -0.0799 -0.1836
H -0.0361 2.0891 -0.0820
H 2.7707 -0.2478 1.1005
H 3.7352 -0.6963 -0.3667
C 1.7693 -1.5843 -0.2804
H 2.2069 -2.5165 0.1649
H 1.6836 -1.7498 -1.3870
C 0.3903 -1.3641 0.3123
H 0.4446 -1.3386 1.4336
H -0.2872 -2.2142 0.0338
H -0.5995 -0.0857 -1.2141
O -1.7878 -0.1704 0.6967
H 3.3721 2.1892 0.3509
H 2.8308 2.7584 -1.1267
S -3.0561 0.4825 0.0453
C -4.2899 -0.5616 0.5532
H -3.9255 -1.3218 1.2877
H -4.7387 -1.1297 -0.2974
H -5.1246 -0.0139 1.0546
O -2.8763 0.3813 -1.3406
O -3.2551 1.7498 0.5862
27
Frame 21
C 2.7062 -0.4283 -0.0126
C 2.2674 0.8230 -0.7184
N 3.0634 1.9669 -0.5825
C 0.3993 1.1688 0.3122
H 1.8299 0.6953 -1.7286
H 0.7103 1.1986 1.3633
C -0.1852 -0.0691 -0.1723
H -0.0367 2.0997 -0.0711
H 2.7776 -0.2447 1.0930
H 3.7346 -0.7084 -0.3746
C 1.7633 -1.5835 -0.2760
H 2.1992 -2.5162 0.1700
H 1.6694 -1.7527 -1.3812
C 0.3897 -1.3536 0.3252
H 0.4517 -1.3242 1.4459
H -0.2938 -2.2014 0.0549
H -0.6019 -0.0760 -1.2010
O -1.7938 -0.1665 0.7080
H 3.3987 2.1791 0.3259
H 2.8412 2.7513 -1.1474
S -3.0596 0.4864 0.0624
C -4.2916 -0.5772 0.5363
H -3.9315 -1.3447 1.2650
H -4.7214 -1.1356 -0.3298
H -5.1386 -0.0437 1.0318
O -2.8700 0.4155 -1.3245
O -3.2777 1.7411 0.6257
27
Frame 22
C 2.7084 -0.4317 -0.0188
C 2.2765 0.8170 -0.7315
N 3.0681 1.9610 -0.6000
C 0.3960 1.1786 0.3231
H 1.8225 0.6900 -1.7341
H 0.7215 1.2095 1.3695
C -0.1833 -0.0583 -0.1610
H -0.0372 2.1103 -0.0602
H 2.7845 -0.2415 1.0855
H 3.7340 -0.7205 -0.3825
C 1.7573 -1.5826 -0.2715
H 2.1914 -2.5159 0.1751
H 1.6552 -1.7556 -1.3755
C 0.3891 -1.3431 0.3382
H 0.4588 -1.3097 1.4582
H -0.3004 -2.1887 0.0761
H -0.6044 -0.0663 -1.1878
O -1.7998 -0.1627 0.7193
H 3.4253 2.1690 0.3010
H 2.8515 2.7443 -1.1682
S -3.0632 0.4904 0.0795
C -4.2933 -0.5928 0.5194
H -3.9375 -1.3676 1.2422
H -4.7042 -1.1416 -0.3621
H -5.1526 -0.0735 1.0091
O -2.8638 0.4497 -1.3084
O -3.3003 1.7323 0.6652
27
Frame 23
C 2.7141 -0.4367 -0.0291
C 2.2951 0.8068 -0.7542
N 3.0737 1.9533 -0.6264
C 0.3881 1.1942 0.3463
H 1.8099 0.6825 -1.7421
H 0.7383 1.2241 1.3841
C -0.1779 -0.0396 -0.1429
H -0.0401 2.1284 -0.0348
H 2.7960 -0.2355 1.0731
H 3.7356 -0.7397 -0.3935
C 1.7499 -1.5803 -0.2660
H 2.1811 -2.5146 0.1814
H 1.6350 -1.7585 -1.3679
C 0.3901 -1.3256 0.3568
H 0.4714 -1.2882 1.4760
H -0.3092 -2.1669 0.1059
H -0.6064 -0.0471 -1.1664
O -1.8125 -0.1644 0.7320
H 3.4697 2.1529 0.2598
H 2.8689 2.7334 -1.2025
S -3.0693 0.4900 0.1022
C -4.2998 -0.6144 0.4958
H -3.9501 -1.4002 1.2091
H -4.6885 -1.1471 -0.4053
H -5.1726 -0.1118 0.9795
O -2.8599 0.4905 -1.2866
O -3.3306 1.7147 0.7156
27
Frame 24
C 2.7198 -0.4427 -0.0396
C 2.3134 0.7955 -0.7771
N 3.0779 1.9449 -0.6513
C 0.3802 1.2117 0.3678
H 1.7977 0.6744 -1.7494
H 0.7548 1.2427 1.3960
C -0.1724 -0.0198 -0.1247
H -0.0428 2.1475 -0.0133
H 2.8096 -0.2304 1.0600
H 3.7362 -0.7609 -0.4063
C 1.7413 -1.5781 -0.2586
H 2.1690 -2.5134 0.1903
H 1.6127 -1.7624 -1.3580
C 0.3912 -1.3062 0.3778
H 0.4852 -1.2626 1.4956
H -0.3184 -2.1431 0.1408
H -0.6088 -0.0284 -1.1446
O -1.8254 -0.1654 0.7436
H 3.5151 2.1347 0.2172
H 2.8873 2.7207 -1.2375
S -3.0764 0.4902 0.1263
C -4.3044 -0.6375 0.4698
H -3.9567 -1.4414 1.1630
H -4.6757 -1.1445 -0.4528
H -5.1870 -0.1561 0.9561
O -2.8585 0.5366 -1.2620
O -3.3648 1.6940 0.7710
27
Frame 25
C 2.7253 -0.4500 -0.0491
C 2.3334 0.7842 -0.7978
N 3.0847 1.9356 -0.6714
C 0.3728 1.2314 0.3881
H 1.7882 0.6680 -1.7545
H 0.7694 1.2630 1.4076
C -0.1663 0.0029 -0.1087
H -0.0448 2.1691 0.0071
H 2.8222 -0.2285 1.0483
H 3.7364 -0.7837 -0.4174
C 1.7316 -1.5751 -0.2529
H 2.1541 -2.5126 0.1962
H 1.5898 -1.7633 -1.3500
C 0.3915 -1.2846 0.3963
H 0.4979 -1.2356 1.5127
H -0.3291 -2.1161 0.1725
H -0.6110 -0.0063 -1.1248
O -1.8377 -0.1631 0.7524
H 3.5603 2.1145 0.1789
H 2.9084 2.7073 -1.2673
S -3.0849 0.4872 0.1449
C -4.3078 -0.6615 0.4485
H -3.9561 -1.4829 1.1179
H -4.6711 -1.1414 -0.4913
H -5.1952 -0.2008 0.9451
O -2.8621 0.5692 -1.2428
O -3.4001 1.6732 0.8117
27
Frame 26
C 2.7310 -0.4576 -0.0591
C 2.3528 0.7729 -0.8179
N 3.0923 1.9252 -0.6915
C 0.3658 1.2510 0.4097
H 1.7781 0.6621 -1.7579
H 0.7834 1.2829 1.4203
C -0.1599 0.0258 -0.0920
H -0.0486 2.1903 0.0301
H 2.8361 -0.2278 1.0361
H 3.7361 -0.8070 -0.4299
C 1.7218 -1.5719 -0.2475
H 2.1390 -2.5119 0.2014
H 1.5662 -1.7633 -1.3422
C 0.3924 -1.2629 0.4150
H 0.5120 -1.2088 1.5298
H -0.3392 -2.0886 0.2048
H -0.6128 0.0162 -1.1042
O -1.8498 -0.1598 0.7607
H 3.6030 2.0941 0.1405
H 2.9264 2.6938 -1.2950
S -3.0931 0.4834 0.1606
C -4.3103 -0.6845 0.4273
H -3.9524 -1.5227 1.0713
H -4.6693 -1.1369 -0.5274
H -5.2006 -0.2447 0.9368
O -2.8654 0.5978 -1.2256
O -3.4351 1.6529 0.8456
27
Frame 27
C 2.7372 -0.4644 -0.0690
C 2.3716 0.7625 -0.8376
N 3.1004 1.9151 -0.7127
C 0.3595 1.2686 0.4340
H 1.7671 0.6564 -1.7596
H 0.7966 1.2990 1.4360
C -0.1523 0.0476 -0.0748
H -0.0545 2.2099 0.0593
H 2.8493 -0.2263 1.0241
H 3.7370 -0.8279 -0.4412
C 1.7140 -1.5686 -0.2432
H 2.1267 -2.5109 0.2052
H 1.5455 -1.7626 -1.3353
C 0.3947 -1.2431 0.4319
H 0.5265 -1.1863 1.5450
H -0.3471 -2.0628 0.2331
H -0.6141 0.0388 -1.0827
O -1.8618 -0.1604 0.7664
H 3.6407 2.0768 0.1030
H 2.9391 2.6824 -1.3204
S -3.0999 0.4768 0.1715
C -4.3148 -0.7036 0.4088
H -3.9519 -1.5568 1.0295
H -4.6733 -1.1305 -0.5574
H -5.2049 -0.2796 0.9315
O -2.8683 0.6156 -1.2134
O -3.4632 1.6345 0.8681
27
Frame 28
C 2.7445 -0.4709 -0.0792
C 2.3893 0.7524 -0.8564
N 3.1080 1.9050 -0.7337
C 0.3509 1.2845 0.4577
H 1.7564 0.6507 -1.7602
H 0.8049 1.3155 1.4519
C -0.1444 0.0666 -0.0575
H -0.0638 2.2267 0.0862
H 2.8648 -0.2254 1.0116
H 3.7386 -0.8472 -0.4542
C 1.7082 -1.5654 -0.2390
H 2.1174 -2.5100 0.2078
H 1.5261 -1.7611 -1.3287
C 0.3997 -1.2248 0.4495
H 0.5448 -1.1648 1.5606
H -0.3511 -2.0396 0.2631
H -0.6147 0.0569 -1.0612
O -1.8733 -0.1656 0.7711
H 3.6725 2.0620 0.0672
H 2.9482 2.6710 -1.3449
S -3.1053 0.4700 0.1826
C -4.3205 -0.7193 0.3904
H -3.9561 -1.5876 0.9879
H -4.6782 -1.1203 -0.5869
H -5.2104 -0.3087 0.9236
O -2.8713 0.6331 -1.2011
O -3.4852 1.6162 0.8917
27
Frame 29
C 2.7528 -0.4781 -0.0898
C 2.4076 0.7427 -0.8737
N 3.1165 1.8948 -0.7513
C 0.3418 1.3007 0.4806
H 1.7490 0.6456 -1.7605
H 0.8095 1.3320 1.4683
C -0.1362 0.0860 -0.0422
H -0.0757 2.2433 0.1133
H 2.8818 -0.2270 0.9989
H 3.7407 -0.8674 -0.4685
C 1.7027 -1.5620 -0.2365
H 2.1075 -2.5095 0.2082
H 1.5074 -1.7583 -1.3238
C 0.4052 -1.2061 0.4650
H 0.5639 -1.1428 1.5741
H -0.3547 -2.0156 0.2914
H -0.6141 0.0756 -1.0422
O -1.8841 -0.1703 0.7733
H 3.7018 2.0472 0.0365
H 2.9564 2.6610 -1.3637
S -3.1108 0.4618 0.1899
C -4.3268 -0.7340 0.3757
H -3.9599 -1.6145 0.9528
H -4.6863 -1.1123 -0.6097
H -5.2150 -0.3346 0.9198
O -2.8762 0.6426 -1.1930
O -3.5049 1.5995 0.9070
27
Frame 30
C 2.7601 -0.4887 -0.1049
C 2.4242 0.7329 -0.8907
N 3.1273 1.8820 -0.7689
C 0.3335 1.3203 0.5057
H 1.7397 0.6427 -1.7599
H 0.8138 1.3539 1.4874
C -0.1284 0.1088 -0.0222
H -0.0864 2.2632 0.1414
H 2.9055 -0.2355 0.9815
H 3.7381 -0.8928 -0.4943
C 1.6926 -1.5581 -0.2346
H 2.0920 -2.5102 0.2052
H 1.4778 -1.7529 -1.3184
C 0.4113 -1.1832 0.4866
H 0.5908 -1.1135 1.5920
H -0.3596 -1.9866 0.3332
H -0.6148 0.0958 -1.0178
O -1.8954 -0.1727 0.7785
H 3.7313 2.0292 0.0070
H 2.9663 2.6503 -1.3800
S -3.1168 0.4530 0.1956
C -4.3303 -0.7522 0.3567
H -3.9588 -1.6425 0.9151
H -4.6880 -1.1099 -0.6365
H -5.2192 -0.3676 0.9093
O -2.8773 0.6518 -1.1852
O -3.5294 1.5822 0.9182
27
Frame 31
C 2.7670 -0.4997 -0.1204
C 2.4405 0.7232 -0.9074
N 3.1394 1.8683 -0.7857
C 0.3264 1.3407 0.5325
H 1.7336 0.6397 -1.7606
H 0.8181 1.3757 1.5088
C -0.1200 0.1332 -0.0014
H -0.0974 2.2839 0.1729
H 2.9290 -0.2453 0.9636
H 3.7344 -0.9187 -0.5207
C 1.6819 -1.5535 -0.2336
H 2.0749 -2.5109 0.2006
H 1.4481 -1.7455 -1.3141
C 0.4171 -1.1599 0.5066
H 0.6163 -1.0867 1.6082
H -0.3647 -1.9565 0.3709
H -0.6144 0.1189 -0.9931
O -1.9063 -0.1713 0.7841
H 3.7596 2.0103 -0.0204
H 2.9754 2.6404 -1.3929
S -3.1235 0.4441 0.1981
C -4.3326 -0.7709 0.3405
H -3.9561 -1.6683 0.8832
H -4.6892 -1.1127 -0.6585
H -5.2224 -0.3984 0.8999
O -2.8793 0.6532 -1.1819
O -3.5560 1.5669 0.9210
27
Frame 32
C 2.7738 -0.5120 -0.1376
C 2.4559 0.7137 -0.9233
N 3.1521 1.8538 -0.8008
C 0.3185 1.3620 0.5593
H 1.7281 0.6381 -1.7612
H 0.8203 1.3999 1.5304
C -0.1117 0.1580 0.0201
H -0.1096 2.3049 0.2033
H 2.9558 -0.2586 0.9434
H 3.7284 -0.9466 -0.5519
C 1.6699 -1.5486 -0.2328
H 2.0562 -2.5116 0.1949
H 1.4153 -1.7369 -1.3091
C 0.4241 -1.1354 0.5282
H 0.6457 -1.0570 1.6252
H -0.3687 -1.9250 0.4135
H -0.6135 0.1413 -0.9677
O -1.9170 -0.1694 0.7896
H 3.7867 1.9899 -0.0452
H 2.9848 2.6309 -1.4025
S -3.1304 0.4350 0.1988
C -4.3342 -0.7900 0.3239
H -3.9511 -1.6941 0.8497
H -4.6916 -1.1153 -0.6800
H -5.2238 -0.4306 0.8919
O -2.8807 0.6522 -1.1803
O -3.5830 1.5515 0.9203
27
Frame 33
C 2.7787 -0.5291 -0.1610
C 2.4698 0.7044 -0.9378
N 3.1676 1.8365 -0.8114
C 0.3114 1.3890 0.5878
H 1.7207 0.6416 -1.7596
H 0.8225 1.4313 1.5542
C -0.1039 0.1881 0.0459
H -0.1201 2.3312 0.2337
H 2.9914 -0.2835 0.9164
H 3.7142 -0.9818 -0.5994
C 1.6513 -1.5425 -0.2331
H 2.0280 -2.5135 0.1852
H 1.3691 -1.7240 -1.3036
C 0.4312 -1.1048 0.5557
H 0.6837 -1.0179 1.6453
H -0.3744 -1.8856 0.4707
H -0.6129 0.1671 -0.9381
O -1.9287 -0.1599 0.7978
H 3.8167 1.9624 -0.0650
H 2.9996 2.6210 -1.4048
S -3.1390 0.4254 0.1952
C -4.3314 -0.8149 0.3053
H -3.9364 -1.7228 0.8154
H -4.6888 -1.1278 -0.7024
H -5.2219 -0.4733 0.8822
O -2.8798 0.6461 -1.1827
O -3.6187 1.5371 0.9082
27
Frame 34
C 2.7823 -0.5475 -0.1862
C 2.4824 0.6956 -0.9513
N 3.1829 1.8188 -0.8197
C 0.3048 1.4172 0.6185
H 1.7131 0.6471 -1.7569
H 0.8243 1.4638 1.5805
C -0.0960 0.2198 0.0734
H -0.1309 2.3588 0.2671
H 3.0277 -0.3130 0.8866
H 3.6961 -1.0182 -0.6512
C 1.6306 -1.5352 -0.2346
H 1.9963 -2.5151 0.1726
H 1.3198 -1.7075 -1.2987
C 0.4391 -1.0731 0.5830
H 0.7235 -0.9797 1.6639
H -0.3785 -1.8443 0.5278
H -0.6122 0.1951 -0.9069
O -1.9402 -0.1497 0.8066
H 3.8453 1.9334 -0.0819
H 3.0143 2.6121 -1.4029
S -3.1464 0.4143 0.1874
C -4.3270 -0.8400 0.2887
H -3.9207 -1.7475 0.7901
H -4.6832 -1.1481 -0.7208
H -5.2192 -0.5128 0.8704
O -2.8756 0.6307 -1.1900
O -3.6525 1.5253 0.8845
27
Frame 35
C 2.7828 -0.5691 -0.2192
C 2.4932 0.6894 -0.9629
N 3.1997 1.8007 -0.8192
C 0.2995 1.4489 0.6544
H 1.7051 0.6619 -1.7529
H 0.8265 1.4984 1.6127
C -0.0881 0.2562 0.1051
H -0.1408 2.3905 0.3075
H 3.0707 -0.3544 0.8470
H 3.6671 -1.0585 -0.7208
C 1.6037 -1.5255 -0.2400
H 1.9558 -2.5166 0.1521
H 1.2589 -1.6837 -1.2957
C 0.4478 -1.0372 0.6123
H 0.7709 -0.9376 1.6815
H -0.3825 -1.7972 0.5927
H -0.6094 0.2287 -0.8726
O -1.9519 -0.1335 0.8185
H 3.8756 1.8968 -0.0898
H 3.0332 2.6067 -1.3868
S -3.1520 0.3982 0.1693
C -4.3207 -0.8687 0.2773
H -3.9060 -1.7677 0.7865
H -4.6703 -1.1873 -0.7311
H -5.2179 -0.5459 0.8537
O -2.8637 0.5877 -1.2098
O -3.6870 1.5187 0.8303
27
Frame 36
C 2.7658 -0.5847 -0.2528
C 2.4842 0.6807 -0.9884
N 3.1928 1.7829 -0.8450
C 0.3099 1.4733 0.7230
H 1.6843 0.6607 -1.7672
H 0.8439 1.5136 1.6780
C -0.0737 0.2942 0.1610
H -0.1280 2.4208 0.3902
H 3.0894 -0.3819 0.8008
H 3.6187 -1.0906 -0.7803
C 1.5695 -1.5125 -0.2373
H 1.9100 -2.5124 0.1391
H 1.1889 -1.6548 -1.2779
C 0.4578 -1.0071 0.6505
H 0.8186 -0.9157 1.7034
H -0.3821 -1.7524 0.6604
H -0.5976 0.2767 -0.8155
O -1.9623 -0.1153 0.8352
H 3.8778 1.8728 -0.1229
H 3.0266 2.5942 -1.4064
S -3.1419 0.3820 0.1441
C -4.3016 -0.8938 0.2511
H -3.8961 -1.7742 0.7910
H -4.6194 -1.2382 -0.7543
H -5.2145 -0.5687 0.7929
O -2.8161 0.5410 -1.2265
O -3.7047 1.5092 0.7538
27
Frame 37
C 2.7487 -0.6002 -0.2864
C 2.4752 0.6720 -1.0139
N 3.1859 1.7652 -0.8707
C 0.3202 1.4977 0.7917
H 1.6636 0.6595 -1.7815
H 0.8613 1.5288 1.7433
C -0.0593 0.3321 0.2168
H -0.1151 2.4512 0.4730
H 3.1081 -0.4094 0.7546
H 3.5702 -1.1228 -0.8397
C 1.5353 -1.4996 -0.2346
H 1.8643 -2.5082 0.1261
H 1.1189 -1.6259 -1.2602
C 0.4678 -0.9769 0.6888
H 0.8664 -0.8938 1.7252
H -0.3818 -1.7076 0.7281
H -0.5857 0.3248 -0.7583
O -1.9727 -0.0971 0.8518
H 3.8801 1.8488 -0.1560
H 3.0200 2.5816 -1.4259
S -3.1318 0.3658 0.1189
C -4.2826 -0.9189 0.2248
H -3.8862 -1.7806 0.7955
H -4.5686 -1.2891 -0.7775
H -5.2112 -0.5914 0.7322
O -2.7686 0.4944 -1.2431
O -3.7223 1.4997 0.6773
27
Frame 38
C 2.7317 -0.6158 -0.3200
C 2.4662 0.6633 -1.0394
N 3.1790 1.7474 -0.8965
C 0.3306 1.5221 0.8603
H 1.6428 0.6583 -1.7958
H 0.8787 1.5440 1.8086
C -0.0449 0.3701 0.2727
H -0.1023 2.4815 0.5557
H 3.1268 -0.4369 0.7084
H 3.5218 -1.1549 -0.8992
C 1.5011 -1.4866 -0.2319
H 1.8185 -2.5040 0.1131
H 1.0489 -1.5970 -1.2424
C 0.4778 -0.9468 0.7270
H 0.9141 -0.8719 1.7471
H -0.3814 -1.6628 0.7958
H -0.5739 0.3728 -0.7012
O -1.9831 -0.0789 0.8685
H 3.8823 1.8248 -0.1891
H 3.0134 2.5691 -1.4455
S -3.1217 0.3496 0.0937
C -4.2635 -0.9440 0.1986
H -3.8763 -1.7871 0.8000
H -4.5177 -1.3400 -0.8007
H -5.2078 -0.6142 0.6714
O -2.7210 0.4477 -1.2598
O -3.7400 1.4902 0.6008
27
Frame 39
C 2.7146 -0.6314 -0.3536
C 2.4573 0.6545 -1.0650
N 3.1720 1.7297 -0.9222
C 0.3410 1.5466 0.9290
H 1.6220 0.6572 -1.8100
H 0.8962 1.5591 1.8738
C -0.0306 0.4081 0.3285
H -0.0895 2.5118 0.6384
H 3.1456 -0.4645 0.6621
H 3.4734 -1.1871 -0.9587
C 1.4669 -1.4736 -0.2292
H 1.7727 -2.4998 0.1002
H 0.9789 -1.5682 -1.2247
C 0.4879 -0.9166 0.7652
H 0.9618 -0.8499 1.7690
H -0.3811 -1.6179 0.8636
H -0.5621 0.4208 -0.6441
O -1.9936 -0.0608 0.8851
H 3.8846 1.8009 -0.2223
H 3.0069 2.5565 -1.4651
S -3.1116 0.3333 0.0684
C -4.2444 -0.9691 0.1723
H -3.8663 -1.7936 0.8045
H -4.4669 -1.3910 -0.8238
H -5.2045 -0.6369 0.6107
O -2.6735 0.4010 -1.2765
O -3.7576 1.4808 0.5243
27
Frame 40
C 2.6976 -0.6470 -0.3872
C 2.4483 0.6458 -1.0905
N 3.1651 1.7119 -0.9480
C 0.3514 1.5710 0.9976
H 1.6012 0.6560 -1.8243
H 0.9136 1.5743 1.9391
C -0.0162 0.4461 0.3844
H -0.0767 2.5421 0.7211
H 3.1643 -0.4920 0.6159
H 3.4250 -1.2192 -1.0182
C 1.4327 -1.4606 -0.2265
H 1.7269 -2.4956 0.0872
H 0.9089 -1.5393 -1.2069
C 0.4979 -0.8865 0.8034
H 1.0095 -0.8280 1.7909
H -0.3807 -1.5731 0.9313
H -0.5503 0.4688 -0.5870
O -2.0040 -0.0426 0.9018
H 3.8868 1.7769 -0.2554
H 3.0003 2.5440 -1.4847
S -3.1015 0.3171 0.0432
C -4.2253 -0.9942 0.1461
H -3.8564 -1.8001 0.8090
H -4.4160 -1.4419 -0.8470
H -5.2011 -0.6597 0.5499
O -2.6259 0.3543 -1.2932
O -3.7753 1.4713 0.4478
27
Frame 41
C 2.6805 -0.6625 -0.4208
C 2.4393 0.6371 -1.1160
N 3.1582 1.6942 -0.9737
C 0.3617 1.5954 1.0663
H 1.5805 0.6548 -1.8386
H 0.9310 1.5895 2.0044
C -0.0018 0.4840 0.4402
H -0.0638 2.5725 0.8039
H 3.1830 -0.5195 0.5697
H 3.3765 -1.2514 -1.0776
C 1.3985 -1.4477 -0.2238
H 1.6812 -2.4914 0.0742
H 0.8389 -1.5104 -1.1892
C 0.5079 -0.8563 0.8417
H 1.0573 -0.8061 1.8127
H -0.3804 -1.5283 0.9990
H -0.5384 0.5169 -0.5298
O -2.0144 -0.0244 0.9184
H 3.8891 1.7529 -0.2885
H 2.9937 2.5314 -1.5042
S -3.0914 0.3009 0.0180
C -4.2063 -1.0193 0.1198
H -3.8465 -1.8065 0.8135
H -4.3652 -1.4928 -0.8702
H -5.1978 -0.6824 0.4892
O -2.5784 0.3077 -1.3098
O -3.7929 1.4618 0.3713
27
Frame 42
C 2.6635 -0.6781 -0.4544
C 2.4303 0.6284 -1.1415
N 3.1513 1.6764 -0.9995
C 0.3721 1.6198 1.1349
H 1.5597 0.6536 -1.8529
H 0.9484 1.6047 2.0697
C 0.0126 0.5220 0.4961
H -0.0510 2.6028 0.8866
H 3.2017 -0.5470 0.5235
H 3.3281 -1.2835 -1.1371
C 1.3643 -1.4347 -0.2211
H 1.6354 -2.4872 0.0612
H 0.7689 -1.4815 -1.1714
C 0.5179 -0.8262 0.8799
H 1.1050 -0.7842 1.8346
H -0.3800 -1.4835 1.0667
H -0.5266 0.5649 -0.4727
O -2.0248 -0.0062 0.9351
H 3.8913 1.7289 -0.3216
H 2.9871 2.5189 -1.5238
S -3.0813 0.2847 -0.0072
C -4.1872 -1.0444 0.0936
H -3.8366 -1.8130 0.8180
H -4.3143 -1.5437 -0.8934
H -5.1944 -0.7052 0.4284
O -2.5308 0.2610 -1.3265
O -3.8106 1.4523 0.2948
