27
Frame 1
C -1.8247 1.2005 0.4384
N -2.0207 1.9567 -0.7825
C -2.6583 -0.0898 0.4729
C -0.3644 0.8528 0.7723
H -3.7190 0.1353 0.1889
H -2.6602 -0.4640 1.5301
C -2.1053 -1.1626 -0.4397
H 0.2837 1.7672 0.7262
C 0.1823 -0.2084 -0.1761
H -0.3170 0.4620 1.8213
H -2.7170 -2.0964 -0.3254
C -0.6594 -1.4801 -0.1240
H -0.2550 -2.2233 -0.8576
H -0.5736 -1.9314 0.8982
H 0.2142 0.1846 -1.2345
O 1.5009 -0.5573 0.2141
H -2.1958 -0.8389 -1.5101
H -2.2001 1.8680 1.2742
H -1.8346 1.3935 -1.5889
H -1.4167 2.7551 -0.7961
S 2.8146 0.2701 -0.4065
C 4.0243 -0.6771 0.2513
H 4.6654 -1.1641 -0.5275
H 3.6240 -1.5149 0.8828
H 4.7138 -0.0983 0.9179
O 2.7730 1.5298 0.1584
O 2.7255 0.1307 -1.7781
27
Frame 2
C -1.8234 1.2061 0.4242
N -2.0008 1.9606 -0.8001
C -2.6685 -0.0764 0.4535
C -0.3713 0.8442 0.7718
H -3.6937 0.1354 0.1009
H -2.7430 -0.4020 1.5025
C -2.0976 -1.1872 -0.3609
H 0.2796 1.7536 0.7591
C 0.1829 -0.1946 -0.1931
H -0.3412 0.4237 1.8059
H -2.6148 -2.0683 -0.1236
C -0.6604 -1.4627 -0.1781
H -0.3249 -2.1276 -0.9642
H -0.5069 -1.9719 0.7643
H 0.2291 0.2210 -1.2399
O 1.4969 -0.5563 0.2015
H -2.2709 -0.9978 -1.3730
H -2.1990 1.8832 1.2524
H -1.8195 1.3925 -1.6039
H -1.3849 2.7489 -0.8124
S 2.8176 0.2813 -0.3815
C 4.0191 -0.6868 0.2566
H 4.6627 -1.1561 -0.5295
H 3.6115 -1.5367 0.8629
H 4.7068 -0.1301 0.9400
O 2.7739 1.5210 0.2181
O 2.7406 0.1826 -1.7534
27
Frame 3
C -1.8221 1.2118 0.4100
N -1.9809 1.9646 -0.8177
C -2.6786 -0.0631 0.4341
C -0.3781 0.8357 0.7713
H -3.6685 0.1355 0.0129
H -2.8258 -0.3400 1.4749
C -2.0899 -1.2119 -0.2821
H 0.2756 1.7400 0.7919
C 0.1836 -0.1808 -0.2100
H -0.3655 0.3855 1.7905
H -2.5125 -2.0401 0.0781
C -0.6615 -1.4454 -0.2323
H -0.3947 -2.0320 -1.0709
H -0.4402 -2.0124 0.6304
H 0.2439 0.2573 -1.2452
O 1.4928 -0.5553 0.1889
H -2.3461 -1.1567 -1.2359
H -2.1979 1.8984 1.2305
H -1.8045 1.3915 -1.6189
H -1.3530 2.7428 -0.8288
S 2.8206 0.2926 -0.3564
C 4.0138 -0.6966 0.2619
H 4.6599 -1.1480 -0.5316
H 3.5991 -1.5584 0.8430
H 4.6999 -0.1618 0.9622
O 2.7748 1.5121 0.2777
O 2.7556 0.2344 -1.7288
27
Frame 4
C -1.8208 1.2174 0.3958
N -1.9610 1.9685 -0.8353
C -2.6888 -0.0497 0.4147
C -0.3850 0.8271 0.7708
H -3.6432 0.1356 -0.0751
H -2.9086 -0.2780 1.4473
C -2.0822 -1.2365 -0.2033
H 0.2715 1.7264 0.8248
C 0.1842 -0.1670 -0.2270
H -0.3897 0.3472 1.7751
H -2.4103 -2.0120 0.2799
C -0.6625 -1.4280 -0.2864
H -0.4646 -1.9363 -1.1775
H -0.3735 -2.0529 0.4965
H 0.2588 0.2937 -1.2506
O 1.4888 -0.5543 0.1763
H -2.4212 -1.3156 -1.0988
H -2.1968 1.9136 1.2087
H -1.7894 1.3905 -1.6339
H -1.3212 2.7366 -0.8451
S 2.8236 0.3038 -0.3314
C 4.0086 -0.7063 0.2672
H 4.6572 -1.1400 -0.5336
H 3.5866 -1.5802 0.8231
H 4.6929 -0.1936 0.9843
O 2.7757 1.5033 0.3374
O 2.7707 0.2863 -1.7041
27
Frame 5
C -1.8194 1.2231 0.3816
N -1.9411 1.9725 -0.8528
C -2.6990 -0.0364 0.3953
C -0.3918 0.8186 0.7702
H -3.6179 0.1356 -0.1630
H -2.9913 -0.2160 1.4198
C -2.0745 -1.2612 -0.1245
H 0.2675 1.7129 0.8577
C 0.1848 -0.1533 -0.2440
H -0.4140 0.3090 1.7596
H -2.3080 -1.9838 0.4816
C -0.6636 -1.4106 -0.3406
H -0.5344 -1.8407 -1.2841
H -0.3069 -2.0933 0.3627
H 0.2736 0.3301 -1.2559
O 1.4848 -0.5532 0.1636
H -2.4964 -1.4744 -0.9617
H -2.1956 1.9289 1.1869
H -1.7744 1.3894 -1.6489
H -1.2894 2.7305 -0.8614
S 2.8267 0.3151 -0.3063
C 4.0033 -0.7161 0.2724
H 4.6545 -1.1319 -0.5356
H 3.5741 -1.6019 0.8031
H 4.6860 -0.2254 1.0064
O 2.7767 1.4945 0.3971
O 2.7858 0.3381 -1.6794
27
Frame 6
C -1.8181 1.2287 0.3674
N -1.9212 1.9764 -0.8704
C -2.7092 -0.0230 0.3759
C -0.3987 0.8100 0.7697
H -3.5926 0.1357 -0.2510
H -3.0741 -0.1540 1.3922
C -2.0668 -1.2858 -0.0457
H 0.2634 1.6993 0.8906
C 0.1854 -0.1395 -0.2610
H -0.4382 0.2707 1.7442
H -2.2058 -1.9557 0.6834
C -0.6646 -1.3932 -0.3947
H -0.6043 -1.7450 -1.3907
H -0.2402 -2.1338 0.2288
H 0.2885 0.3665 -1.2613
O 1.4808 -0.5522 0.1510
H -2.5715 -1.6333 -0.8246
H -2.1945 1.9441 1.1651
H -1.7593 1.3884 -1.6639
H -1.2576 2.7243 -0.8777
S 2.8297 0.3263 -0.2813
C 3.9981 -0.7258 0.2777
H 4.6518 -1.1239 -0.5376
H 3.5616 -1.6237 0.7832
H 4.6790 -0.2572 1.0285
O 2.7776 1.4857 0.4568
O 2.8009 0.3900 -1.6547
27
Frame 7
C -1.8168 1.2344 0.3532
N -1.9013 1.9804 -0.8880
C -2.7193 -0.0097 0.3565
C -0.4055 0.8015 0.7692
H -3.5674 0.1358 -0.3390
H -3.1569 -0.0920 1.3646
C -2.0591 -1.3105 0.0331
H 0.2594 1.6857 0.9234
C 0.1861 -0.1257 -0.2779
H -0.4625 0.2325 1.7288
H -2.1035 -1.9275 0.8851
C -0.6657 -1.3759 -0.4489
H -0.6741 -1.6494 -1.4974
H -0.1735 -2.1743 0.0949
H 0.3033 0.4028 -1.2666
O 1.4767 -0.5512 0.1384
H -2.6467 -1.7922 -0.6875
H -2.1934 1.9593 1.1432
H -1.7443 1.3874 -1.6789
H -1.2257 2.7182 -0.8941
S 2.8327 0.3376 -0.2562
C 3.9928 -0.7356 0.2830
H 4.6490 -1.1158 -0.5397
H 3.5492 -1.6454 0.7633
H 4.6721 -0.2889 1.0507
O 2.7785 1.4768 0.5164
O 2.8159 0.4418 -1.6301
27
Frame 8
C -1.8155 1.2400 0.3390
N -1.8814 1.9843 -0.9056
C -2.7295 0.0037 0.3371
C -0.4124 0.7929 0.7687
H -3.5421 0.1359 -0.4270
H -3.2397 -0.0300 1.3370
C -2.0514 -1.3351 0.1119
H 0.2553 1.6721 0.9563
C 0.1867 -0.1119 -0.2949
H -0.4867 0.1942 1.7134
H -2.0013 -1.8994 1.0869
C -0.6667 -1.3585 -0.5030
H -0.7440 -1.5537 -1.6040
H -0.1068 -2.2148 -0.0390
H 0.3182 0.4392 -1.2720
O 1.4727 -0.5502 0.1258
H -2.7218 -1.9511 -0.5504
H -2.1923 1.9745 1.1214
H -1.7292 1.3864 -1.6939
H -1.1939 2.7120 -0.9104
S 2.8357 0.3488 -0.2312
C 3.9876 -0.7453 0.2883
H 4.6463 -1.1078 -0.5417
H 3.5367 -1.6672 0.7434
H 4.6651 -0.3207 1.0728
O 2.7794 1.4680 0.5761
O 2.8310 0.4937 -1.6054
27
Frame 9
C -1.8264 1.2288 0.3432
N -1.9321 2.0043 -0.8738
C -2.7216 -0.0203 0.3202
C -0.4061 0.8125 0.7358
H -3.4928 0.0827 -0.4801
H -3.2760 -0.0528 1.2901
C -2.0053 -1.3386 0.1503
H 0.2468 1.7066 0.8808
C 0.1906 -0.1047 -0.3200
H -0.4418 0.2517 1.6992
H -1.8788 -1.8101 1.1363
C -0.6744 -1.3405 -0.5448
H -0.8235 -1.4703 -1.6307
H -0.1074 -2.2159 -0.1768
H 0.3381 0.4462 -1.2947
O 1.4655 -0.5570 0.1152
H -2.6666 -2.0131 -0.4195
H -2.1997 1.9232 1.1555
H -1.7630 1.4400 -1.6790
H -1.2757 2.7548 -0.8570
S 2.8425 0.3233 -0.2312
C 3.9732 -0.7728 0.3231
H 4.6448 -1.1495 -0.4883
H 3.5057 -1.6857 0.7779
H 4.6377 -0.3444 1.1160
O 2.7846 1.4545 0.5579
O 2.8619 0.4473 -1.6058
27
Frame 10
C -1.8374 1.2176 0.3474
N -1.9829 2.0243 -0.8420
C -2.7138 -0.0443 0.3033
C -0.3998 0.8321 0.7029
H -3.4435 0.0295 -0.5333
H -3.3123 -0.0756 1.2432
C -1.9593 -1.3421 0.1887
H 0.2384 1.7411 0.8052
C 0.1944 -0.0975 -0.3451
H -0.3969 0.3092 1.6850
H -1.7563 -1.7208 1.1857
C -0.6820 -1.3225 -0.5867
H -0.9031 -1.3870 -1.6575
H -0.1079 -2.2171 -0.3147
H 0.3579 0.4531 -1.3173
O 1.4583 -0.5639 0.1046
H -2.6114 -2.0751 -0.2885
H -2.2071 1.8719 1.1896
H -1.7969 1.4936 -1.6641
H -1.3575 2.7976 -0.8037
S 2.8493 0.2978 -0.2312
C 3.9588 -0.8002 0.3579
H 4.6433 -1.1912 -0.4349
H 3.4746 -1.7042 0.8125
H 4.6102 -0.3682 1.1592
O 2.7898 1.4410 0.5398
O 2.8928 0.4009 -1.6062
27
Frame 11
C -1.8483 1.2063 0.3517
N -2.0336 2.0443 -0.8103
C -2.7059 -0.0683 0.2863
C -0.3935 0.8517 0.6700
H -3.3941 -0.0236 -0.5864
H -3.3485 -0.0983 1.1962
C -1.9132 -1.3457 0.2272
H 0.2299 1.7755 0.7297
C 0.1983 -0.0904 -0.3703
H -0.3519 0.3667 1.6709
H -1.6339 -1.6315 1.2350
C -0.6897 -1.3045 -0.6285
H -0.9826 -1.3036 -1.6842
H -0.1085 -2.2182 -0.4525
H 0.3778 0.4601 -1.3400
O 1.4512 -0.5707 0.0941
H -2.5563 -2.1372 -0.1576
H -2.2145 1.8206 1.2238
H -1.8307 1.5473 -1.6491
H -1.4394 2.8405 -0.7503
S 2.8560 0.2723 -0.2313
C 3.9445 -0.8277 0.3926
H 4.6418 -1.2330 -0.3816
H 3.4436 -1.7226 0.8470
H 4.5828 -0.3919 1.2025
O 2.7950 1.4275 0.5216
O 2.9238 0.3544 -1.6065
27
Frame 12
C -1.8593 1.1951 0.3559
N -2.0844 2.0643 -0.7785
C -2.6981 -0.0923 0.2694
C -0.3872 0.8713 0.6371
H -3.3448 -0.0768 -0.6396
H -3.3848 -0.1211 1.1493
C -1.8672 -1.3492 0.2656
H 0.2215 1.8100 0.6541
C 0.2021 -0.0832 -0.3954
H -0.3070 0.4242 1.6567
H -1.5114 -1.5422 1.2844
C -0.6973 -1.2865 -0.6704
H -1.0622 -1.2203 -1.7110
H -0.1090 -2.2194 -0.5904
H 0.3976 0.4670 -1.3626
O 1.4440 -0.5776 0.0835
H -2.5011 -2.1992 -0.0266
H -2.2219 1.7693 1.2579
H -1.8646 1.6009 -1.6342
H -1.5212 2.8833 -0.6970
S 2.8628 0.2468 -0.2313
C 3.9301 -0.8551 0.4274
H 4.6403 -1.2747 -0.3282
H 3.4125 -1.7411 0.8816
H 4.5553 -0.4157 1.2457
O 2.8002 1.4140 0.5035
O 2.9547 0.3080 -1.6069
27
Frame 13
C -1.8702 1.1839 0.3601
N -2.1351 2.0843 -0.7467
C -2.6902 -0.1163 0.2525
C -0.3809 0.8909 0.6042
H -3.2955 -0.1300 -0.6927
H -3.4211 -0.1439 1.1024
C -1.8211 -1.3527 0.3040
H 0.2130 1.8445 0.5786
C 0.2060 -0.0760 -0.4205
H -0.2621 0.4817 1.6425
H -1.3889 -1.4529 1.3338
C -0.7050 -1.2685 -0.7122
H -1.1417 -1.1369 -1.7377
H -0.1096 -2.2205 -0.7282
H 0.4175 0.4740 -1.3853
O 1.4368 -0.5844 0.0729
H -2.4459 -2.2612 0.1043
H -2.2293 1.7180 1.2920
H -1.8984 1.6545 -1.6193
H -1.6030 2.9261 -0.6436
S 2.8696 0.2213 -0.2313
C 3.9157 -0.8826 0.4622
H 4.6388 -1.3164 -0.2748
H 3.3815 -1.7596 0.9161
H 4.5279 -0.4394 1.2889
O 2.8054 1.4005 0.4853
O 2.9856 0.2616 -1.6073
27
Frame 14
C -1.8691 1.1811 0.3623
N -2.1837 2.1014 -0.7020
C -2.6792 -0.1237 0.2472
C -0.3736 0.9152 0.5511
H -3.2729 -0.1427 -0.7047
H -3.4196 -0.1547 1.0881
C -1.8024 -1.3531 0.3094
H 0.1917 1.8677 0.4626
C 0.2129 -0.0799 -0.4423
H -0.2100 0.5644 1.5901
H -1.3583 -1.4348 1.3343
C -0.6996 -1.2736 -0.7202
H -1.1482 -1.1441 -1.7404
H -0.1056 -2.2267 -0.7423
H 0.4403 0.4451 -1.4146
O 1.4336 -0.5842 0.0764
H -2.4222 -2.2676 0.1297
H -2.2006 1.6845 1.3150
H -1.9763 1.6994 -1.5888
H -1.6605 2.9476 -0.5937
S 2.8727 0.2152 -0.2080
C 3.9071 -0.9035 0.4779
H 4.6301 -1.3352 -0.2604
H 3.3644 -1.7803 0.9205
H 4.5187 -0.4737 1.3113
O 2.8109 1.3846 0.5233
O 2.9991 0.2717 -1.5818
27
Frame 15
C -1.8681 1.1782 0.3645
N -2.2324 2.1184 -0.6572
C -2.6683 -0.1311 0.2419
C -0.3662 0.9395 0.4981
H -3.2503 -0.1553 -0.7168
H -3.4182 -0.1654 1.0738
C -1.7837 -1.3536 0.3149
H 0.1705 1.8910 0.3466
C 0.2198 -0.0838 -0.4640
H -0.1580 0.6471 1.5378
H -1.3277 -1.4168 1.3348
C -0.6943 -1.2788 -0.7282
H -1.1546 -1.1514 -1.7432
H -0.1016 -2.2330 -0.7563
H 0.4632 0.4162 -1.4439
O 1.4304 -0.5840 0.0798
H -2.3984 -2.2741 0.1551
H -2.1718 1.6509 1.3379
H -2.0542 1.7442 -1.5583
H -1.7180 2.9691 -0.5438
S 2.8758 0.2091 -0.1846
C 3.8986 -0.9243 0.4936
H 4.6214 -1.3539 -0.2460
H 3.3473 -1.8011 0.9248
H 4.5095 -0.5080 1.3336
O 2.8164 1.3688 0.5613
O 3.0126 0.2817 -1.5563
27
Frame 16
C -1.8670 1.1754 0.3667
N -2.2810 2.1355 -0.6125
C -2.6573 -0.1385 0.2366
C -0.3589 0.9638 0.4450
H -3.2277 -0.1680 -0.7288
H -3.4167 -0.1762 1.0595
C -1.7650 -1.3540 0.3203
H 0.1492 1.9142 0.2306
C 0.2267 -0.0877 -0.4858
H -0.1059 0.7298 1.4854
H -1.2971 -1.3987 1.3353
C -0.6889 -1.2839 -0.7362
H -1.1611 -1.1586 -1.7459
H -0.0976 -2.2392 -0.7704
H 0.4860 0.3873 -1.4732
O 1.4272 -0.5838 0.0833
H -2.3747 -2.2805 0.1805
H -2.1431 1.6174 1.3609
H -2.1321 1.7891 -1.5278
H -1.7755 2.9906 -0.4939
S 2.8789 0.2030 -0.1613
C 3.8900 -0.9452 0.5093
H 4.6127 -1.3727 -0.2316
H 3.3302 -1.8218 0.9292
H 4.5003 -0.5423 1.3560
O 2.8219 1.3529 0.5993
O 3.0261 0.2918 -1.5308
27
Frame 17
C -1.8659 1.1726 0.3690
N -2.3296 2.1526 -0.5677
C -2.6463 -0.1458 0.2314
C -0.3516 0.9881 0.3920
H -3.2052 -0.1806 -0.7408
H -3.4152 -0.1869 1.0453
C -1.7464 -1.3545 0.3257
H 0.1280 1.9375 0.1147
C 0.2337 -0.0915 -0.5075
H -0.0538 0.8124 1.4330
H -1.2665 -1.3806 1.3358
C -0.6835 -1.2891 -0.7441
H -1.1676 -1.1659 -1.7487
H -0.0937 -2.2454 -0.7845
H 0.5089 0.3583 -1.5025
O 1.4241 -0.5836 0.0868
H -2.3509 -2.2869 0.2060
H -2.1144 1.5839 1.3839
H -2.2100 1.8340 -1.4972
H -1.8331 3.0122 -0.4439
S 2.8821 0.1970 -0.1379
C 3.8815 -0.9661 0.5250
H 4.6041 -1.3914 -0.2173
H 3.3132 -1.8425 0.9335
H 4.4910 -0.5765 1.3784
O 2.8273 1.3371 0.6374
O 3.0397 0.3018 -1.5053
27
Frame 18
C -1.8648 1.1698 0.3712
N -2.3782 2.1697 -0.5230
C -2.6353 -0.1532 0.2261
C -0.3443 1.0124 0.3389
H -3.1826 -0.1933 -0.7528
H -3.4137 -0.1977 1.0310
C -1.7277 -1.3549 0.3311
H 0.1067 1.9607 -0.0013
C 0.2406 -0.0954 -0.5293
H -0.0017 0.8951 1.3806
H -1.2359 -1.3625 1.3363
C -0.6781 -1.2942 -0.7521
H -1.1741 -1.1731 -1.7514
H -0.0897 -2.2516 -0.7986
H 0.5317 0.3294 -1.5318
O 1.4209 -0.5834 0.0903
H -2.3272 -2.2933 0.2314
H -2.0857 1.5504 1.4069
H -2.2879 1.8789 -1.4667
H -1.8906 3.0337 -0.3940
S 2.8852 0.1909 -0.1146
C 3.8729 -0.9870 0.5407
H 4.5954 -1.4102 -0.2029
H 3.2961 -1.8632 0.9379
H 4.4818 -0.6108 1.4008
O 2.8328 1.3212 0.6754
O 3.0532 0.3119 -1.4798
27
Frame 19
C -1.8638 1.1669 0.3734
N -2.4269 2.1867 -0.4782
C -2.6244 -0.1606 0.2208
C -0.3369 1.0367 0.2859
H -3.1600 -0.2059 -0.7649
H -3.4123 -0.2084 1.0167
C -1.7090 -1.3554 0.3366
H 0.0855 1.9840 -0.1173
C 0.2475 -0.0993 -0.5510
H 0.0503 0.9778 1.3283
H -1.2053 -1.3445 1.3368
C -0.6728 -1.2994 -0.7601
H -1.1805 -1.1804 -1.7542
H -0.0857 -2.2579 -0.8126
H 0.5546 0.3005 -1.5611
O 1.4177 -0.5832 0.0937
H -2.3034 -2.2998 0.2568
H -2.0569 1.5168 1.4298
H -2.3658 1.9237 -1.4362
H -1.9481 3.0552 -0.3441
S 2.8883 0.1848 -0.0912
C 3.8644 -1.0078 0.5564
H 4.5867 -1.4289 -0.1885
H 3.2790 -1.8840 0.9422
H 4.4726 -0.6451 1.4231
O 2.8383 1.3054 0.7134
O 3.0667 0.3219 -1.4543
27
Frame 20
C -1.8627 1.1641 0.3756
N -2.4755 2.2038 -0.4335
C -2.6134 -0.1680 0.2155
C -0.3296 1.0610 0.2328
H -3.1374 -0.2186 -0.7769
H -3.4108 -0.2192 1.0024
C -1.6903 -1.3558 0.3420
H 0.0642 2.0072 -0.2333
C 0.2544 -0.1032 -0.5728
H 0.1024 1.0605 1.2759
H -1.1747 -1.3264 1.3373
C -0.6674 -1.3045 -0.7681
H -1.1870 -1.1876 -1.7569
H -0.0817 -2.2641 -0.8267
H 0.5774 0.2716 -1.5904
O 1.4145 -0.5830 0.0972
H -2.2797 -2.3062 0.2822
H -2.0282 1.4833 1.4528
H -2.4437 1.9686 -1.4057
H -2.0056 3.0767 -0.2942
S 2.8914 0.1787 -0.0679
C 3.8558 -1.0287 0.5721
H 4.5780 -1.4477 -0.1741
H 3.2619 -1.9047 0.9466
H 4.4634 -0.6794 1.4455
O 2.8438 1.2895 0.7514
O 3.0802 0.3320 -1.4288
27
Frame 21
C -1.8287 1.1502 0.3889
N -2.4490 2.2093 -0.3240
C -2.6010 -0.1634 0.2145
C -0.3399 1.0641 0.1573
H -3.1299 -0.1845 -0.7716
H -3.3929 -0.2182 1.0064
C -1.7021 -1.3653 0.3097
H -0.0242 1.9603 -0.3517
C 0.2553 -0.1125 -0.6030
H 0.1284 1.1239 1.1356
H -1.2082 -1.3826 1.3032
C -0.6628 -1.3167 -0.7824
H -1.1649 -1.2268 -1.7774
H -0.0660 -2.2618 -0.8070
H 0.5959 0.2364 -1.6194
O 1.4020 -0.5693 0.0952
H -2.3078 -2.2916 0.2137
H -1.9286 1.4206 1.4556
H -2.4717 2.0187 -1.2791
H -1.9615 3.0692 -0.1819
S 2.8855 0.1766 -0.0732
C 3.8303 -1.0006 0.6188
H 4.5588 -1.4443 -0.0951
H 3.2254 -1.8559 1.0113
H 4.4275 -0.6236 1.4822
O 2.8369 1.3089 0.6986
O 3.0927 0.2786 -1.4250
27
Frame 22
C -1.7947 1.1363 0.4021
N -2.4225 2.2148 -0.2145
C -2.5886 -0.1588 0.2136
C -0.3502 1.0673 0.0818
H -3.1223 -0.1503 -0.7664
H -3.3751 -0.2172 1.0104
C -1.7139 -1.3748 0.2773
H -0.1125 1.9135 -0.4701
C 0.2561 -0.1219 -0.6332
H 0.1544 1.1874 0.9952
H -1.2417 -1.4387 1.2690
C -0.6581 -1.3290 -0.7967
H -1.1427 -1.2659 -1.7979
H -0.0503 -2.2595 -0.7874
H 0.6144 0.2011 -1.6485
O 1.3896 -0.5555 0.0932
H -2.3358 -2.2769 0.1453
H -1.8290 1.3579 1.4583
H -2.4997 2.0687 -1.1525
H -1.9175 3.0618 -0.0695
S 2.8796 0.1745 -0.0786
C 3.8049 -0.9725 0.6654
H 4.5395 -1.4408 -0.0161
H 3.1888 -1.8072 1.0760
H 4.3917 -0.5678 1.5190
O 2.8299 1.3284 0.6457
O 3.1053 0.2252 -1.4211
27
Frame 23
C -1.7607 1.1224 0.4154
N -2.3960 2.2203 -0.1050
C -2.5762 -0.1542 0.2126
C -0.3604 1.0704 0.0063
H -3.1148 -0.1162 -0.7611
H -3.3572 -0.2162 1.0143
C -1.7257 -1.3842 0.2450
H -0.2009 1.8666 -0.5885
C 0.2570 -0.1312 -0.6634
H 0.1804 1.2508 0.8549
H -1.2752 -1.4949 1.2349
C -0.6535 -1.3412 -0.8110
H -1.1206 -1.3051 -1.8184
H -0.0346 -2.2573 -0.7677
H 0.6330 0.1659 -1.6775
O 1.3771 -0.5418 0.0912
H -2.3639 -2.2623 0.0768
H -1.7293 1.2953 1.4611
H -2.5277 2.1188 -1.0260
H -1.8734 3.0543 0.0428
S 2.8738 0.1725 -0.0839
C 3.7794 -0.9444 0.7121
H 4.5203 -1.4374 0.0630
H 3.1523 -1.7584 1.1406
H 4.3558 -0.5121 1.5557
O 2.8230 1.3478 0.5929
O 3.1178 0.1718 -1.4173
27
Frame 24
C -1.7267 1.1085 0.4287
N -2.3695 2.2258 0.0045
C -2.5638 -0.1496 0.2116
C -0.3707 1.0735 -0.0692
H -3.1073 -0.0821 -0.7558
H -3.3393 -0.2152 1.0183
C -1.7375 -1.3937 0.2127
H -0.2892 1.8197 -0.7069
C 0.2579 -0.1405 -0.6936
H 0.2064 1.3143 0.7145
H -1.3087 -1.5511 1.2008
C -0.6488 -1.3534 -0.8253
H -1.0985 -1.3443 -1.8389
H -0.0189 -2.2550 -0.7480
H 0.6515 0.1307 -1.7065
O 1.3646 -0.5281 0.0892
H -2.3919 -2.2477 0.0084
H -1.6297 1.2326 1.4639
H -2.5557 2.1689 -0.8994
H -1.8293 3.0468 0.1551
S 2.8679 0.1704 -0.0892
C 3.7540 -0.9163 0.7588
H 4.5011 -1.4339 0.1420
H 3.1157 -1.7097 1.2053
H 4.3200 -0.4563 1.5924
O 2.8161 1.3673 0.5401
O 3.1304 0.1184 -1.4135
27
Frame 25
C -1.6927 1.0946 0.4420
N -2.3430 2.2313 0.1140
C -2.5514 -0.1450 0.2107
C -0.3810 1.0767 -0.1447
H -3.0998 -0.0479 -0.7506
H -3.3215 -0.2142 1.0223
C -1.7493 -1.4032 0.1804
H -0.3776 1.7729 -0.8253
C 0.2587 -0.1498 -0.7238
H 0.2324 1.3777 0.5742
H -1.3422 -1.6072 1.1666
C -0.6442 -1.3657 -0.8396
H -1.0763 -1.3835 -1.8594
H -0.0032 -2.2527 -0.7283
H 0.6700 0.0954 -1.7355
O 1.3521 -0.5144 0.0872
H -2.4200 -2.2331 -0.0601
H -1.5301 1.1699 1.4667
H -2.5837 2.2189 -0.7728
H -1.7852 3.0394 0.2675
S 2.8620 0.1683 -0.0945
C 3.7285 -0.8882 0.8055
H 4.4819 -1.4305 0.2210
H 3.0792 -1.6609 1.2700
H 4.2841 -0.4005 1.6292
O 2.8092 1.3867 0.4872
O 3.1429 0.0650 -1.4096
27
Frame 26
C -1.6586 1.0807 0.4552
N -2.3164 2.2367 0.2234
C -2.5391 -0.1405 0.2097
C -0.3913 1.0798 -0.2201
H -3.0922 -0.0138 -0.7453
H -3.3036 -0.2133 1.0263
C -1.7611 -1.4127 0.1480
H -0.4659 1.7260 -0.9436
C 0.2596 -0.1592 -0.7541
H 0.2583 1.4412 0.4338
H -1.3757 -1.6634 1.1325
C -0.6395 -1.3779 -0.8539
H -1.0542 -1.4226 -1.8799
H 0.0126 -2.2504 -0.7087
H 0.6885 0.0602 -1.7646
O 1.3397 -0.5006 0.0851
H -2.4480 -2.2184 -0.1285
H -1.4305 1.1072 1.4694
H -2.6118 2.2690 -0.6462
H -1.7412 3.0319 0.3798
S 2.8561 0.1662 -0.0999
C 3.7031 -0.8600 0.8521
H 4.4626 -1.4270 0.3000
H 3.0426 -1.6122 1.3347
H 4.2483 -0.3447 1.6659
O 2.8022 1.4062 0.4344
O 3.1555 0.0115 -1.4058
27
Frame 27
C -1.6246 1.0668 0.4685
N -2.2899 2.2422 0.3329
C -2.5267 -0.1359 0.2088
C -0.4016 1.0830 -0.2956
H -3.0847 0.0204 -0.7401
H -3.2858 -0.2123 1.0303
C -1.7729 -1.4222 0.1157
H -0.5543 1.6792 -1.0620
C 0.2604 -0.1685 -0.7843
H 0.2843 1.5046 0.2935
H -1.4092 -1.7195 1.0983
C -0.6349 -1.3902 -0.8682
H -1.0320 -1.4618 -1.9004
H 0.0283 -2.2481 -0.6890
H 0.7070 0.0249 -1.7936
O 1.3272 -0.4869 0.0831
H -2.4761 -2.2038 -0.1970
H -1.3309 1.0445 1.4722
H -2.6398 2.3190 -0.5196
H -1.6971 3.0245 0.4922
S 2.8502 0.1641 -0.1052
C 3.6776 -0.8319 0.8988
H 4.4434 -1.4236 0.3790
H 3.0061 -1.5634 1.3994
H 4.2124 -0.2889 1.7027
O 2.7953 1.4256 0.3815
O 3.1680 -0.0419 -1.4019
27
Frame 28
C -1.5906 1.0529 0.4818
N -2.2634 2.2477 0.4424
C -2.5143 -0.1313 0.2078
C -0.4119 1.0861 -0.3711
H -3.0772 0.0545 -0.7348
H -3.2679 -0.2113 1.0343
C -1.7847 -1.4317 0.0834
H -0.6426 1.6323 -1.1804
C 0.2613 -0.1778 -0.8145
H 0.3103 1.5681 0.1531
H -1.4427 -1.7757 1.0642
C -0.6302 -1.4024 -0.8825
H -1.0099 -1.5010 -1.9209
H 0.0440 -2.2458 -0.6693
H 0.7255 -0.0103 -1.8226
O 1.3147 -0.4732 0.0811
H -2.5041 -2.1892 -0.2654
H -1.2313 0.9818 1.4750
H -2.6678 2.3691 -0.3930
H -1.6530 3.0170 0.6045
S 2.8443 0.1620 -0.1105
C 3.6522 -0.8038 0.9455
H 4.4242 -1.4201 0.4580
H 2.9695 -1.5147 1.4641
H 4.1766 -0.2331 1.7394
O 2.7884 1.4451 0.3287
O 3.1806 -0.0953 -1.3981
27
Frame 29
C -1.5566 1.0390 0.4951
N -2.2369 2.2532 0.5519
C -2.5019 -0.1267 0.2068
C -0.4221 1.0892 -0.4466
H -3.0697 0.0886 -0.7295
H -3.2500 -0.2103 1.0382
C -1.7965 -1.4411 0.0511
H -0.7310 1.5854 -1.2988
C 0.2622 -0.1871 -0.8447
H 0.3363 1.6315 0.0128
H -1.4762 -1.8319 1.0301
C -0.6256 -1.4146 -0.8968
H -0.9878 -1.5402 -1.9414
H 0.0597 -2.2436 -0.6496
H 0.7441 -0.0455 -1.8516
O 1.3022 -0.4595 0.0791
H -2.5322 -2.1746 -0.3339
H -1.1316 0.9192 1.4778
H -2.6958 2.4192 -0.2665
H -1.6089 3.0095 0.7168
S 2.8385 0.1600 -0.1158
C 3.6267 -0.7757 0.9922
H 4.4050 -1.4167 0.5371
H 2.9330 -1.4659 1.5287
H 4.1407 -0.1774 1.7761
O 2.7815 1.4645 0.2759
O 3.1931 -0.1487 -1.3943
27
Frame 30
C -1.5226 1.0251 0.5083
N -2.2104 2.2587 0.6614
C -2.4895 -0.1221 0.2059
C -0.4324 1.0924 -0.5221
H -3.0621 0.1228 -0.7243
H -3.2322 -0.2093 1.0422
C -1.8083 -1.4506 0.0187
H -0.8193 1.5386 -1.4172
C 0.2630 -0.1965 -0.8749
H 0.3623 1.6950 -0.1276
H -1.5097 -1.8880 0.9959
C -0.6209 -1.4269 -0.9111
H -0.9656 -1.5793 -1.9619
H 0.0754 -2.2413 -0.6300
H 0.7626 -0.0808 -1.8807
O 1.2898 -0.4457 0.0771
H -2.5602 -2.1599 -0.4023
H -1.0320 0.8565 1.4805
H -2.7238 2.4692 -0.1399
H -1.5649 3.0021 0.8292
S 2.8326 0.1579 -0.1212
C 3.6013 -0.7476 1.0388
H 4.3857 -1.4132 0.6161
H 2.8964 -1.4172 1.5934
H 4.1049 -0.1216 1.8129
O 2.7745 1.4840 0.2230
O 3.2057 -0.2021 -1.3904
27
Frame 31
C -1.4886 1.0112 0.5216
N -2.1839 2.2642 0.7709
C -2.4771 -0.1175 0.2049
C -0.4427 1.0955 -0.5976
H -3.0546 0.1569 -0.7190
H -3.2143 -0.2083 1.0462
C -1.8201 -1.4601 -0.0136
H -0.9077 1.4917 -1.5356
C 0.2639 -0.2058 -0.9051
H 0.3883 1.7584 -0.2679
H -1.5432 -1.9442 0.9618
C -0.6163 -1.4391 -0.9254
H -0.9435 -1.6185 -1.9824
H 0.0911 -2.2390 -0.6103
H 0.7811 -0.1160 -1.9097
O 1.2773 -0.4320 0.0751
H -2.5883 -2.1453 -0.4708
H -0.9324 0.7938 1.4833
H -2.7518 2.5193 -0.0133
H -1.5208 2.9946 0.9415
S 2.8267 0.1558 -0.1265
C 3.5758 -0.7195 1.0855
H 4.3665 -1.4098 0.6951
H 2.8599 -1.3684 1.6581
H 4.0690 -0.0658 1.8496
O 2.7676 1.5034 0.1702
O 3.2182 -0.2555 -1.3866
27
Frame 32
C -1.4528 1.0078 0.5127
N -2.1472 2.2535 0.7906
C -2.4388 -0.1329 0.2343
C -0.4504 1.0993 -0.6440
H -3.0483 0.1246 -0.6713
H -3.1453 -0.2289 1.0988
C -1.7580 -1.4621 0.0051
H -0.9619 1.4517 -1.5711
C 0.2661 -0.2018 -0.9439
H 0.3588 1.8079 -0.3689
H -1.3817 -1.8873 0.9597
C -0.6397 -1.4173 -0.9942
H -1.0512 -1.4975 -2.0163
H 0.0352 -2.2619 -0.8070
H 0.8030 -0.1090 -1.9366
O 1.2513 -0.4458 0.0551
H -2.5217 -2.1877 -0.3668
H -0.8614 0.7844 1.4498
H -2.7440 2.5057 0.0291
H -1.4853 2.9891 0.9399
S 2.8059 0.1402 -0.1070
C 3.5144 -0.7156 1.1399
H 4.3123 -1.4150 0.7856
H 2.7797 -1.3522 1.7011
H 3.9874 -0.0506 1.9063
O 2.7381 1.4921 0.1654
O 3.2358 -0.2903 -1.3461
27
Frame 33
C -1.4171 1.0043 0.5037
N -2.1104 2.2429 0.8102
C -2.4006 -0.1484 0.2636
C -0.4582 1.1031 -0.6903
H -3.0421 0.0922 -0.6235
H -3.0763 -0.2494 1.1514
C -1.6960 -1.4642 0.0239
H -1.0161 1.4116 -1.6067
C 0.2682 -0.1979 -0.9828
H 0.3293 1.8574 -0.4699
H -1.2203 -1.8304 0.9577
C -0.6630 -1.3954 -1.0630
H -1.1590 -1.3766 -2.0503
H -0.0206 -2.2849 -1.0037
H 0.8250 -0.1021 -1.9635
O 1.2253 -0.4597 0.0350
H -2.4552 -2.2302 -0.2628
H -0.7904 0.7749 1.4162
H -2.7363 2.4920 0.0714
H -1.4499 2.9837 0.9382
S 2.7852 0.1246 -0.0876
C 3.4529 -0.7118 1.1944
H 4.2582 -1.4202 0.8760
H 2.6994 -1.3360 1.7442
H 3.9059 -0.0355 1.9631
O 2.7086 1.4807 0.1607
O 3.2534 -0.3251 -1.3057
27
Frame 34
C -1.3813 1.0009 0.4948
N -2.0737 2.2322 0.8299
C -2.3623 -0.1638 0.2930
C -0.4659 1.1069 -0.7367
H -3.0358 0.0599 -0.5758
H -3.0073 -0.2700 1.2040
C -1.6339 -1.4662 0.0426
H -1.0703 1.3716 -1.6422
C 0.2704 -0.1939 -1.0216
H 0.2998 1.9069 -0.5709
H -1.0588 -1.7735 0.9556
C -0.6864 -1.3736 -1.1318
H -1.2667 -1.2556 -2.0842
H -0.0765 -2.3078 -1.2004
H 0.8469 -0.0951 -1.9904
O 1.1993 -0.4735 0.0150
H -2.3886 -2.2726 -0.1588
H -0.7194 0.7655 1.3827
H -2.7285 2.4784 0.1138
H -1.4144 2.9782 0.9366
S 2.7644 0.1090 -0.0681
C 3.3915 -0.7079 1.2488
H 4.2040 -1.4254 0.9665
H 2.6192 -1.3198 1.7872
H 3.8243 -0.0203 2.0198
O 2.6791 1.4694 0.1559
O 3.2710 -0.3599 -1.2652
