31
Frame 1
H 0.3143 3.4671 -1.0710
C -0.0460 2.6440 -0.4676
C -0.5068 0.1350 -0.5692
C 0.3815 1.2190 1.5704
C 0.2538 -0.0572 0.7455
C 0.8955 2.3939 0.7235
C -0.1300 1.3837 -1.3509
O 1.5885 -0.4680 0.3594
H 1.8891 2.1613 0.3615
H 0.8535 1.1819 -1.7606
H -1.0297 2.9365 -0.1046
H -0.4756 -0.7513 -1.1715
H 1.0539 1.0158 2.3931
H -0.2024 -0.8503 1.3183
H 0.9636 3.2824 1.3378
H -0.8098 1.5133 -2.1844
H -0.5888 1.4615 1.9943
C 1.7741 -1.7814 0.0086
O 0.8230 -2.5123 -0.1301
C 3.2214 -2.1051 -0.1557
H 3.6821 -1.3918 -0.8266
H 3.3290 -3.1083 -0.5358
H 3.7154 -2.0201 0.8054
O -1.9963 0.2335 -0.1845
C -2.9792 -0.8928 0.1556
O -3.9074 -0.5135 0.7542
C -2.5071 -2.1829 -0.4027
H -2.3364 1.1213 0.0362
H -2.5401 -2.1370 -1.4860
H -3.1857 -2.9530 -0.0662
H -1.4972 -2.4252 -0.0966
31
Frame 2
H 0.3150 3.4661 -1.0705
C -0.0455 2.6427 -0.4676
C -0.5067 0.1341 -0.5700
C 0.3809 1.2172 1.5703
C 0.2536 -0.0585 0.7447
C 0.8950 2.3925 0.7242
C -0.1289 1.3826 -1.3512
O 1.5885 -0.4685 0.3583
H 1.8889 2.1603 0.3627
H 0.8549 1.1811 -1.7603
H -1.0293 2.9356 -0.1050
H -0.4747 -0.7522 -1.1726
H 1.0531 1.0136 2.3931
H -0.2022 -0.8521 1.3170
H 0.9627 3.2809 1.3388
H -0.8082 1.5124 -2.1851
H -0.5894 1.4593 1.9943
C 1.7748 -1.7824 0.0093
O 0.8243 -2.5143 -0.1272
C 3.2223 -2.1045 -0.1563
H 3.6807 -1.3923 -0.8297
H 3.3312 -3.1078 -0.5347
H 3.7178 -2.0165 0.8036
O -1.9958 0.2324 -0.1869
C -2.9782 -0.8913 0.1550
O -3.9061 -0.5114 0.7541
C -2.5081 -2.1829 -0.4020
H -2.3430 1.1400 0.0399
H -2.5418 -2.1383 -1.4852
H -3.1873 -2.9519 -0.0642
H -1.4984 -2.4259 -0.0963
31
Frame 3
H 0.3146 3.4663 -1.0700
C -0.0455 2.6428 -0.4670
C -0.5066 0.1340 -0.5699
C 0.3827 1.2169 1.5702
C 0.2542 -0.0587 0.7445
C 0.8963 2.3922 0.7237
C -0.1301 1.3830 -1.3509
O 1.5888 -0.4692 0.3573
H 1.8897 2.1597 0.3612
H 0.8532 1.1819 -1.7614
H -1.0287 2.9362 -0.1033
H -0.4742 -0.7522 -1.1727
H 1.0556 1.0130 2.3922
H -0.2016 -0.8521 1.3171
H 0.9648 3.2804 1.3383
H -0.8105 1.5130 -2.1838
H -0.5871 1.4591 1.9952
C 1.7749 -1.7836 0.0105
O 0.8244 -2.5157 -0.1238
C 3.2223 -2.1058 -0.1560
H 3.6781 -1.3989 -0.8369
H 3.3313 -3.1124 -0.5258
H 3.7204 -2.0082 0.8017
O -1.9958 0.2306 -0.1870
C -2.9769 -0.8914 0.1520
O -3.9069 -0.5126 0.7493
C -2.5078 -2.1841 -0.4040
H -2.3522 1.1560 0.0506
H -2.5393 -2.1395 -1.4873
H -3.1891 -2.9519 -0.0674
H -1.4989 -2.4288 -0.0965
31
Frame 4
H 0.3143 3.4658 -1.0698
C -0.0453 2.6421 -0.4667
C -0.5065 0.1333 -0.5700
C 0.3830 1.2160 1.5702
C 0.2543 -0.0594 0.7443
C 0.8965 2.3915 0.7239
C -0.1299 1.3825 -1.3509
O 1.5890 -0.4699 0.3569
H 1.8899 2.1590 0.3610
H 0.8534 1.1816 -1.7614
H -1.0285 2.9358 -0.1026
H -0.4733 -0.7528 -1.1731
H 1.0562 1.0119 2.3920
H -0.2014 -0.8529 1.3168
H 0.9653 3.2797 1.3386
H -0.8104 1.5125 -2.1837
H -0.5867 1.4581 1.9955
C 1.7753 -1.7844 0.0106
O 0.8249 -2.5168 -0.1229
C 3.2227 -2.1063 -0.1565
H 3.6775 -1.4004 -0.8389
H 3.3318 -3.1133 -0.5249
H 3.7216 -2.0070 0.8004
O -1.9955 0.2292 -0.1880
C -2.9759 -0.8907 0.1505
O -3.9071 -0.5116 0.7464
C -2.5076 -2.1849 -0.4036
H -2.3605 1.1739 0.0551
H -2.5387 -2.1415 -1.4871
H -3.1897 -2.9515 -0.0665
H -1.4990 -2.4298 -0.0956
31
Frame 5
H 0.3149 3.4650 -1.0696
C -0.0449 2.6413 -0.4666
C -0.5064 0.1327 -0.5701
C 0.3834 1.2150 1.5702
C 0.2545 -0.0602 0.7442
C 0.8967 2.3907 0.7241
C -0.1298 1.3817 -1.3508
O 1.5893 -0.4704 0.3568
H 1.8900 2.1585 0.3614
H 0.8535 1.1811 -1.7615
H -1.0279 2.9357 -0.1027
H -0.4727 -0.7534 -1.1733
H 1.0567 1.0109 2.3919
H -0.2010 -0.8538 1.3166
H 0.9651 3.2788 1.3388
H -0.8104 1.5119 -2.1834
H -0.5862 1.4569 1.9959
C 1.7757 -1.7848 0.0104
O 0.8253 -2.5174 -0.1231
C 3.2231 -2.1066 -0.1570
H 3.6771 -1.4023 -0.8419
H 3.3321 -3.1147 -0.5230
H 3.7228 -2.0046 0.7992
O -1.9950 0.2279 -0.1890
C -2.9749 -0.8899 0.1490
O -3.9074 -0.5106 0.7432
C -2.5074 -2.1855 -0.4033
H -2.3688 1.1916 0.0605
H -2.5378 -2.1433 -1.4868
H -3.1903 -2.9513 -0.0657
H -1.4993 -2.4312 -0.0945
31
Frame 6
H 0.3150 3.4646 -1.0693
C -0.0446 2.6407 -0.4664
C -0.5062 0.1319 -0.5702
C 0.3836 1.2142 1.5703
C 0.2545 -0.0610 0.7441
C 0.8972 2.3898 0.7242
C -0.1295 1.3812 -1.3507
O 1.5894 -0.4711 0.3569
H 1.8904 2.1571 0.3611
H 0.8537 1.1808 -1.7615
H -1.0276 2.9355 -0.1020
H -0.4717 -0.7542 -1.1736
H 1.0570 1.0098 2.3919
H -0.2010 -0.8546 1.3165
H 0.9662 3.2779 1.3391
H -0.8104 1.5115 -2.1832
H -0.5859 1.4562 1.9962
C 1.7762 -1.7854 0.0102
O 0.8262 -2.5183 -0.1235
C 3.2236 -2.1068 -0.1575
H 3.6766 -1.4039 -0.8441
H 3.3327 -3.1152 -0.5217
H 3.7241 -2.0028 0.7979
O -1.9948 0.2265 -0.1905
C -2.9741 -0.8890 0.1471
O -3.9079 -0.5093 0.7397
C -2.5074 -2.1863 -0.4028
H -2.3774 1.2092 0.0657
H -2.5375 -2.1460 -1.4864
H -3.1911 -2.9508 -0.0638
H -1.4992 -2.4320 -0.0937
31
Frame 7
H 0.3158 3.4637 -1.0692
C -0.0440 2.6399 -0.4663
C -0.5061 0.1313 -0.5702
C 0.3839 1.2132 1.5704
C 0.2547 -0.0618 0.7440
C 0.8972 2.3890 0.7245
C -0.1292 1.3805 -1.3507
O 1.5898 -0.4715 0.3569
H 1.8905 2.1565 0.3618
H 0.8539 1.1804 -1.7617
H -1.0269 2.9352 -0.1022
H -0.4709 -0.7547 -1.1738
H 1.0574 1.0086 2.3918
H -0.2007 -0.8555 1.3163
H 0.9660 3.2770 1.3393
H -0.8102 1.5107 -2.1830
H -0.5854 1.4551 1.9966
C 1.7766 -1.7858 0.0100
O 0.8266 -2.5187 -0.1241
C 3.2240 -2.1071 -0.1581
H 3.6763 -1.4059 -0.8472
H 3.3330 -3.1166 -0.5198
H 3.7254 -2.0002 0.7967
O -1.9944 0.2252 -0.1916
C -2.9732 -0.8883 0.1455
O -3.9082 -0.5083 0.7365
C -2.5073 -2.1870 -0.4024
H -2.3859 1.2268 0.0715
H -2.5373 -2.1480 -1.4862
H -3.1916 -2.9507 -0.0626
H -1.4997 -2.4331 -0.0927
31
Frame 8
H 0.3174 3.4634 -1.0683
C -0.0428 2.6394 -0.4660
C -0.5057 0.1309 -0.5714
C 0.3833 1.2118 1.5704
C 0.2542 -0.0628 0.7433
C 0.8980 2.3875 0.7252
C -0.1282 1.3805 -1.3510
O 1.5895 -0.4722 0.3569
H 1.8912 2.1542 0.3624
H 0.8549 1.1803 -1.7619
H -1.0258 2.9353 -0.1019
H -0.4699 -0.7548 -1.1756
H 1.0564 1.0067 2.3921
H -0.2016 -0.8568 1.3150
H 0.9674 3.2754 1.3403
H -0.8092 1.5114 -2.1832
H -0.5861 1.4540 1.9964
C 1.7772 -1.7864 0.0099
O 0.8276 -2.5197 -0.1247
C 3.2249 -2.1065 -0.1583
H 3.6743 -1.4107 -0.8548
H 3.3351 -3.1187 -0.5117
H 3.7281 -1.9900 0.7941
O -1.9942 0.2239 -0.1949
C -2.9720 -0.8869 0.1421
O -3.9080 -0.5060 0.7319
C -2.5083 -2.1882 -0.4022
H -2.3943 1.2420 0.0841
H -2.5406 -2.1532 -1.4860
H -3.1925 -2.9499 -0.0582
H -1.5003 -2.4339 -0.0940
31
Frame 9
H 0.3182 3.4627 -1.0675
C -0.0422 2.6384 -0.4656
C -0.5054 0.1300 -0.5719
C 0.3831 1.2102 1.5706
C 0.2541 -0.0640 0.7430
C 0.8979 2.3863 0.7259
C -0.1273 1.3797 -1.3510
O 1.5897 -0.4728 0.3566
H 1.8912 2.1532 0.3636
H 0.8560 1.1798 -1.7615
H -1.0253 2.9346 -0.1018
H -0.4688 -0.7556 -1.1763
H 1.0561 1.0048 2.3923
H -0.2015 -0.8583 1.3143
H 0.9670 3.2740 1.3413
H -0.8080 1.5109 -2.1834
H -0.5863 1.4522 1.9966
C 1.7779 -1.7869 0.0096
O 0.8287 -2.5208 -0.1245
C 3.2257 -2.1062 -0.1593
H 3.6730 -1.4128 -0.8596
H 3.3365 -3.1198 -0.5087
H 3.7304 -1.9850 0.7918
O -1.9937 0.2228 -0.1971
C -2.9711 -0.8853 0.1403
O -3.9080 -0.5035 0.7286
C -2.5089 -2.1887 -0.4011
H -2.4029 1.2597 0.0881
H -2.5418 -2.1564 -1.4850
H -3.1937 -2.9489 -0.0549
H -1.5007 -2.4346 -0.0932
31
Frame 10
H 0.3183 3.4621 -1.0662
C -0.0419 2.6372 -0.4651
C -0.5047 0.1291 -0.5727
C 0.3825 1.2083 1.5708
C 0.2543 -0.0654 0.7423
C 0.8972 2.3851 0.7272
C -0.1258 1.3789 -1.3511
O 1.5901 -0.4737 0.3563
H 1.8910 2.1527 0.3655
H 0.8581 1.1796 -1.7606
H -1.0254 2.9330 -0.1018
H -0.4675 -0.7564 -1.1776
H 1.0553 1.0025 2.3926
H -0.2013 -0.8601 1.3131
H 0.9653 3.2725 1.3430
H -0.8056 1.5103 -2.1841
H -0.5871 1.4496 1.9967
C 1.7788 -1.7878 0.0092
O 0.8299 -2.5220 -0.1247
C 3.2267 -2.1061 -0.1609
H 3.6720 -1.4150 -0.8649
H 3.3381 -3.1209 -0.5067
H 3.7331 -1.9801 0.7887
O -1.9928 0.2220 -0.1996
C -2.9701 -0.8829 0.1385
O -3.9084 -0.4995 0.7241
C -2.5095 -2.1890 -0.3987
H -2.4117 1.2781 0.0901
H -2.5427 -2.1601 -1.4827
H -3.1949 -2.9473 -0.0497
H -1.5013 -2.4349 -0.0907
31
Frame 11
H 0.3181 3.4613 -1.0661
C -0.0418 2.6362 -0.4652
C -0.5045 0.1282 -0.5732
C 0.3826 1.2072 1.5706
C 0.2543 -0.0664 0.7419
C 0.8972 2.3841 0.7272
C -0.1253 1.3781 -1.3514
O 1.5904 -0.4742 0.3560
H 1.8909 2.1518 0.3654
H 0.8587 1.1791 -1.7608
H -1.0254 2.9321 -0.1019
H -0.4665 -0.7572 -1.1783
H 1.0555 1.0013 2.3922
H -0.2011 -0.8613 1.3125
H 0.9654 3.2716 1.3431
H -0.8051 1.5094 -2.1844
H -0.5870 1.4483 1.9968
C 1.7796 -1.7883 0.0091
O 0.8310 -2.5229 -0.1247
C 3.2276 -2.1060 -0.1608
H 3.6719 -1.4165 -0.8670
H 3.3394 -3.1216 -0.5040
H 3.7344 -1.9773 0.7881
O -1.9922 0.2208 -0.2018
C -2.9686 -0.8816 0.1372
O -3.9067 -0.4980 0.7235
C -2.5103 -2.1893 -0.3991
H -2.4191 1.2950 0.0987
H -2.5443 -2.1614 -1.4831
H -3.1966 -2.9462 -0.0489
H -1.5022 -2.4362 -0.0916
31
Frame 12
H 0.3175 3.4610 -1.0652
C -0.0419 2.6350 -0.4650
C -0.5039 0.1272 -0.5743
C 0.3821 1.2054 1.5705
C 0.2545 -0.0677 0.7410
C 0.8964 2.3831 0.7279
C -0.1240 1.3773 -1.3518
O 1.5908 -0.4751 0.3556
H 1.8905 2.1515 0.3665
H 0.8605 1.1790 -1.7602
H -1.0260 2.9302 -0.1020
H -0.4653 -0.7581 -1.1798
H 1.0550 0.9993 2.3921
H -0.2010 -0.8630 1.3111
H 0.9638 3.2703 1.3442
H -0.8032 1.5088 -2.1853
H -0.5875 1.4458 1.9967
C 1.7805 -1.7890 0.0085
O 0.8323 -2.5240 -0.1255
C 3.2287 -2.1061 -0.1615
H 3.6719 -1.4182 -0.8699
H 3.3411 -3.1225 -0.5022
H 3.7361 -1.9743 0.7866
O -1.9912 0.2200 -0.2045
C -2.9670 -0.8794 0.1359
O -3.9057 -0.4944 0.7212
C -2.5110 -2.1893 -0.3975
H -2.4271 1.3127 0.1039
H -2.5460 -2.1640 -1.4816
H -3.1981 -2.9445 -0.0448
H -1.5029 -2.4369 -0.0906
31
Frame 13
H 0.3169 3.4604 -1.0645
C -0.0420 2.6338 -0.4650
C -0.5033 0.1262 -0.5753
C 0.3817 1.2038 1.5703
C 0.2546 -0.0690 0.7402
C 0.8958 2.3821 0.7284
C -0.1228 1.3764 -1.3523
O 1.5913 -0.4758 0.3552
H 1.8900 2.1511 0.3673
H 0.8621 1.1787 -1.7599
H -1.0266 2.9285 -0.1023
H -0.4640 -0.7589 -1.1811
H 1.0546 0.9976 2.3919
H -0.2008 -0.8646 1.3100
H 0.9625 3.2691 1.3450
H -0.8015 1.5079 -2.1862
H -0.5880 1.4437 1.9967
C 1.7815 -1.7897 0.0081
O 0.8336 -2.5250 -0.1261
C 3.2298 -2.1062 -0.1620
H 3.6723 -1.4192 -0.8718
H 3.3426 -3.1230 -0.5011
H 3.7376 -1.9725 0.7856
O -1.9902 0.2191 -0.2072
C -2.9653 -0.8773 0.1347
O -3.9041 -0.4913 0.7198
C -2.5120 -2.1894 -0.3965
H -2.4348 1.3301 0.1103
H -2.5480 -2.1663 -1.4805
H -3.1998 -2.9427 -0.0415
H -1.5039 -2.4378 -0.0902
31
Frame 14
H 0.3161 3.4600 -1.0635
C -0.0422 2.6325 -0.4648
C -0.5025 0.1251 -0.5768
C 0.3809 1.2016 1.5701
C 0.2547 -0.0706 0.7390
C 0.8946 2.3809 0.7293
C -0.1211 1.3756 -1.3529
O 1.5918 -0.4766 0.3548
H 1.8894 2.1509 0.3688
H 0.8644 1.1787 -1.7592
H -1.0274 2.9264 -0.1027
H -0.4625 -0.7598 -1.1831
H 1.0536 0.9952 2.3917
H -0.2007 -0.8667 1.3081
H 0.9602 3.2677 1.3464
H -0.7988 1.5072 -2.1876
H -0.5891 1.4407 1.9963
C 1.7827 -1.7903 0.0071
O 0.8352 -2.5259 -0.1277
C 3.2312 -2.1061 -0.1626
H 3.6729 -1.4203 -0.8740
H 3.3447 -3.1234 -0.4999
H 3.7392 -1.9701 0.7846
O -1.9890 0.2185 -0.2106
C -2.9635 -0.8745 0.1337
O -3.9023 -0.4868 0.7183
C -2.5131 -2.1893 -0.3944
H -2.4424 1.3478 0.1154
H -2.5513 -2.1693 -1.4784
H -3.2012 -2.9406 -0.0357
H -1.5046 -2.4382 -0.0897
31
Frame 15
H 0.3152 3.4596 -1.0624
C -0.0424 2.6311 -0.4646
C -0.5017 0.1239 -0.5783
C 0.3800 1.1995 1.5699
C 0.2548 -0.0723 0.7379
C 0.8935 2.3797 0.7302
C -0.1194 1.3747 -1.3535
O 1.5923 -0.4775 0.3543
H 1.8886 2.1506 0.3703
H 0.8668 1.1786 -1.7585
H -1.0284 2.9240 -0.1030
H -0.4609 -0.7608 -1.1851
H 1.0526 0.9929 2.3916
H -0.2005 -0.8688 1.3063
H 0.9580 3.2661 1.3478
H -0.7961 1.5064 -2.1890
H -0.5902 1.4377 1.9961
C 1.7839 -1.7910 0.0063
O 0.8368 -2.5270 -0.1290
C 3.2327 -2.1060 -0.1633
H 3.6736 -1.4209 -0.8760
H 3.3468 -3.1237 -0.4991
H 3.7409 -1.9680 0.7834
O -1.9878 0.2178 -0.2142
C -2.9615 -0.8717 0.1326
O -3.9004 -0.4822 0.7168
C -2.5142 -2.1892 -0.3923
H -2.4499 1.3656 0.1201
H -2.5543 -2.1723 -1.4763
H -3.2029 -2.9382 -0.0301
H -1.5056 -2.4386 -0.0888
31
Frame 16
H 0.3141 3.4591 -1.0612
C -0.0428 2.6296 -0.4645
C -0.5009 0.1226 -0.5798
C 0.3791 1.1972 1.5696
C 0.2549 -0.0740 0.7367
C 0.8920 2.3784 0.7312
C -0.1176 1.3737 -1.3542
O 1.5930 -0.4783 0.3537
H 1.8877 2.1504 0.3719
H 0.8695 1.1785 -1.7576
H -1.0296 2.9213 -0.1035
H -0.4593 -0.7619 -1.1871
H 1.0514 0.9904 2.3914
H -0.2002 -0.8711 1.3045
H 0.9553 3.2646 1.3493
H -0.7931 1.5054 -2.1905
H -0.5915 1.4344 1.9958
C 1.7854 -1.7917 0.0054
O 0.8387 -2.5282 -0.1302
C 3.2343 -2.1057 -0.1642
H 3.6745 -1.4213 -0.8779
H 3.3491 -3.1238 -0.4988
H 3.7428 -1.9661 0.7822
O -1.9864 0.2173 -0.2180
C -2.9595 -0.8685 0.1316
O -3.8982 -0.4770 0.7155
C -2.5157 -2.1889 -0.3900
H -2.4574 1.3834 0.1246
H -2.5576 -2.1752 -1.4740
H -3.2051 -2.9355 -0.0244
H -1.5069 -2.4392 -0.0877
31
Frame 17
H 0.3123 3.4589 -1.0595
C -0.0436 2.6279 -0.4642
C -0.4998 0.1212 -0.5818
C 0.3778 1.1945 1.5693
C 0.2551 -0.0761 0.7351
C 0.8902 2.3771 0.7324
C -0.1152 1.3728 -1.3550
O 1.5937 -0.4793 0.3531
H 1.8864 2.1506 0.3739
H 0.8728 1.1787 -1.7564
H -1.0313 2.9179 -0.1039
H -0.4573 -0.7629 -1.1899
H 1.0501 0.9875 2.3912
H -0.2001 -0.8738 1.3020
H 0.9517 3.2629 1.3514
H -0.7893 1.5045 -2.1925
H -0.5931 1.4303 1.9953
C 1.7870 -1.7925 0.0041
O 0.8408 -2.5294 -0.1323
C 3.2362 -2.1055 -0.1650
H 3.6757 -1.4217 -0.8797
H 3.3518 -3.1239 -0.4984
H 3.7445 -1.9642 0.7811
O -1.9847 0.2169 -0.2223
C -2.9573 -0.8647 0.1308
O -3.8956 -0.4707 0.7144
C -2.5173 -2.1883 -0.3868
H -2.4645 1.4017 0.1275
H -2.5618 -2.1784 -1.4708
H -3.2072 -2.9322 -0.0168
H -1.5081 -2.4393 -0.0864
31
Frame 18
H 0.3096 3.4588 -1.0578
C -0.0448 2.6260 -0.4641
C -0.4983 0.1196 -0.5847
C 0.3761 1.1914 1.5686
C 0.2552 -0.0784 0.7329
C 0.8875 2.3758 0.7337
C -0.1125 1.3718 -1.3563
O 1.5945 -0.4804 0.3522
H 1.8846 2.1515 0.3762
H 0.8768 1.1793 -1.7552
H -1.0339 2.9137 -0.1047
H -0.4550 -0.7641 -1.1935
H 1.0481 0.9842 2.3907
H -0.2000 -0.8769 1.2986
H 0.9467 3.2610 1.3536
H -0.7847 1.5035 -2.1953
H -0.5953 1.4254 1.9946
C 1.7888 -1.7933 0.0024
O 0.8431 -2.5305 -0.1358
C 3.2384 -2.1055 -0.1652
H 3.6783 -1.4213 -0.8793
H 3.3547 -3.1238 -0.4987
H 3.7456 -1.9643 0.7815
O -1.9827 0.2167 -0.2279
C -2.9541 -0.8603 0.1311
O -3.8909 -0.4637 0.7162
C -2.5193 -2.1874 -0.3834
H -2.4696 1.4204 0.1311
H -2.5690 -2.1814 -1.4671
H -3.2088 -2.9286 -0.0073
H -1.5092 -2.4392 -0.0870
31
Frame 19
H 0.3070 3.4586 -1.0558
C -0.0460 2.6239 -0.4638
C -0.4970 0.1179 -0.5873
C 0.3743 1.1881 1.5681
C 0.2554 -0.0808 0.7308
C 0.8848 2.3743 0.7352
C -0.1098 1.3707 -1.3575
O 1.5954 -0.4815 0.3513
H 1.8827 2.1519 0.3787
H 0.8808 1.1797 -1.7537
H -1.0365 2.9094 -0.1054
H -0.4527 -0.7654 -1.1968
H 1.0461 0.9807 2.3903
H -0.1997 -0.8802 1.2954
H 0.9418 3.2590 1.3560
H -0.7800 1.5024 -2.1979
H -0.5975 1.4204 1.9939
C 1.7908 -1.7940 0.0006
O 0.8456 -2.5316 -0.1390
C 3.2407 -2.1053 -0.1660
H 3.6808 -1.4205 -0.8794
H 3.3581 -3.1232 -0.4999
H 3.7471 -1.9641 0.7811
O -1.9806 0.2165 -0.2332
C -2.9514 -0.8557 0.1308
O -3.8871 -0.4559 0.7161
C -2.5213 -2.1864 -0.3794
H -2.4754 1.4393 0.1332
H -2.5750 -2.1848 -1.4630
H -3.2110 -2.9244 0.0025
H -1.5106 -2.4389 -0.0860
31
Frame 20
H 0.3040 3.4584 -1.0535
C -0.0473 2.6217 -0.4635
C -0.4954 0.1160 -0.5903
C 0.3721 1.1844 1.5676
C 0.2556 -0.0836 0.7285
C 0.8816 2.3726 0.7370
C -0.1065 1.3695 -1.3587
O 1.5964 -0.4828 0.3504
H 1.8805 2.1526 0.3818
H 0.8856 1.1802 -1.7519
H -1.0395 2.9044 -0.1063
H -0.4502 -0.7668 -1.2007
H 1.0435 0.9768 2.3900
H -0.1995 -0.8839 1.2918
H 0.9360 3.2567 1.3589
H -0.7744 1.5012 -2.2011
H -0.6003 1.4147 1.9930
C 1.7930 -1.7949 -0.0014
O 0.8485 -2.5330 -0.1425
C 3.2433 -2.1048 -0.1670
H 3.6834 -1.4192 -0.8796
H 3.3618 -3.1224 -0.5016
H 3.7489 -1.9639 0.7806
O -1.9782 0.2165 -0.2393
C -2.9483 -0.8504 0.1307
O -3.8828 -0.4468 0.7164
C -2.5237 -2.1851 -0.3745
H -2.4806 1.4586 0.1339
H -2.5819 -2.1886 -1.4580
H -3.2135 -2.9196 0.0138
H -1.5122 -2.4385 -0.0845
