9
Frame 1
H 0.9493 -0.8942 0.9167
O 0.6483 0.0142 0.7760
C 0.9556 0.3633 -0.5551
C -1.7675 -0.5212 0.1594
H -1.9754 0.5565 0.2153
H -1.9163 -0.8798 1.1876
H 2.0438 0.3966 -0.6821
H 0.5311 1.3479 -0.7819
H 0.5311 -0.3833 -1.2359
9
Frame 2
H 0.9390 -0.9006 0.9101
O 0.6338 0.0061 0.7692
C 0.9502 0.3641 -0.5557
C -1.7523 -0.5203 0.1643
H -1.9630 0.5568 0.2163
H -1.9045 -0.8765 1.1926
H 2.0387 0.3952 -0.6757
H 0.5290 1.3508 -0.7770
H 0.5290 -0.3756 -1.2441
9
Frame 3
H 0.9287 -0.9071 0.9035
O 0.6194 -0.0020 0.7624
C 0.9447 0.3649 -0.5563
C -1.7370 -0.5194 0.1692
H -1.9506 0.5571 0.2174
H -1.8926 -0.8731 1.1976
H 2.0335 0.3938 -0.6693
H 0.5270 1.3538 -0.7721
H 0.5270 -0.3679 -1.2524
9
Frame 4
H 0.9184 -0.9135 0.8968
O 0.6049 -0.0101 0.7556
C 0.9393 0.3656 -0.5569
C -1.7218 -0.5185 0.1741
H -1.9381 0.5574 0.2184
H -1.8808 -0.8698 1.2027
H 2.0284 0.3924 -0.6629
H 0.5249 1.3567 -0.7672
H 0.5249 -0.3601 -1.2606
9
Frame 5
H 0.9081 -0.9199 0.8902
O 0.5904 -0.0183 0.7488
C 0.9339 0.3664 -0.5575
C -1.7066 -0.5176 0.1790
H -1.9257 0.5576 0.2195
H -1.8689 -0.8665 1.2077
H 2.0232 0.3909 -0.6565
H 0.5228 1.3596 -0.7623
H 0.5228 -0.3524 -1.2688
9
Frame 6
H 0.8977 -0.9264 0.8836
O 0.5760 -0.0264 0.7420
C 0.9284 0.3672 -0.5580
C -1.6914 -0.5167 0.1839
H -1.9133 0.5579 0.2205
H -1.8571 -0.8631 1.2127
H 2.0181 0.3895 -0.6501
H 0.5207 1.3625 -0.7574
H 0.5207 -0.3447 -1.2770
9
Frame 7
H 0.8874 -0.9328 0.8770
O 0.5615 -0.0345 0.7352
C 0.9230 0.3680 -0.5586
C -1.6761 -0.5158 0.1887
H -1.9009 0.5582 0.2215
H -1.8452 -0.8598 1.2177
H 2.0129 0.3881 -0.6438
H 0.5187 1.3655 -0.7525
H 0.5187 -0.3370 -1.2853
9
Frame 8
H 0.8771 -0.9392 0.8703
O 0.5470 -0.0426 0.7284
C 0.9176 0.3687 -0.5592
C -1.6609 -0.5149 0.1936
H -1.8884 0.5585 0.2226
H -1.8334 -0.8564 1.2227
H 2.0078 0.3867 -0.6374
H 0.5166 1.3684 -0.7476
H 0.5166 -0.3292 -1.2935
9
Frame 9
H 0.8668 -0.9457 0.8637
O 0.5326 -0.0507 0.7216
C 0.9121 0.3695 -0.5598
C -1.6457 -0.5140 0.1985
H -1.8760 0.5588 0.2236
H -1.8215 -0.8531 1.2277
H 2.0026 0.3853 -0.6310
H 0.5145 1.3713 -0.7427
H 0.5145 -0.3215 -1.3017
9
Frame 10
H 0.8565 -0.9521 0.8571
O 0.5181 -0.0588 0.7148
C 0.9067 0.3703 -0.5604
C -1.6304 -0.5131 0.2034
H -1.8636 0.5591 0.2247
H -1.8097 -0.8498 1.2328
H 1.9975 0.3839 -0.6246
H 0.5125 1.3743 -0.7378
H 0.5125 -0.3138 -1.3100
9
Frame 11
H 0.8462 -0.9585 0.8505
O 0.5036 -0.0669 0.7080
C 0.9013 0.3711 -0.5610
C -1.6152 -0.5122 0.2083
H -1.8512 0.5593 0.2257
H -1.7978 -0.8464 1.2378
H 1.9923 0.3824 -0.6182
H 0.5104 1.3772 -0.7329
H 0.5104 -0.3061 -1.3182
9
Frame 12
H 0.8359 -0.9650 0.8438
O 0.4892 -0.0750 0.7012
C 0.8958 0.3718 -0.5616
C -1.6000 -0.5113 0.2132
H -1.8387 0.5596 0.2268
H -1.7860 -0.8431 1.2428
H 1.9872 0.3810 -0.6118
H 0.5083 1.3801 -0.7280
H 0.5083 -0.2983 -1.3264
9
Frame 13
H 0.8256 -0.9714 0.8372
O 0.4747 -0.0831 0.6944
C 0.8904 0.3726 -0.5622
C -1.5847 -0.5104 0.2181
H -1.8263 0.5599 0.2278
H -1.7741 -0.8397 1.2478
H 1.9821 0.3796 -0.6054
H 0.5062 1.3831 -0.7232
H 0.5062 -0.2906 -1.3346
9
Frame 14
H 0.8152 -0.9778 0.8306
O 0.4602 -0.0913 0.6876
C 0.8850 0.3734 -0.5627
C -1.5695 -0.5094 0.2230
H -1.8139 0.5602 0.2288
H -1.7623 -0.8364 1.2528
H 1.9769 0.3782 -0.5990
H 0.5042 1.3860 -0.7183
H 0.5042 -0.2829 -1.3429
9
Frame 15
H 0.8049 -0.9843 0.8240
O 0.4458 -0.0994 0.6808
C 0.8795 0.3742 -0.5633
C -1.5543 -0.5085 0.2279
H -1.8015 0.5605 0.2299
H -1.7504 -0.8331 1.2578
H 1.9718 0.3768 -0.5926
H 0.5021 1.3889 -0.7134
H 0.5021 -0.2752 -1.3511
9
Frame 16
H 0.7946 -0.9907 0.8173
O 0.4313 -0.1075 0.6740
C 0.8741 0.3749 -0.5639
C -1.5391 -0.5076 0.2328
H -1.7890 0.5608 0.2309
H -1.7386 -0.8297 1.2629
H 1.9666 0.3754 -0.5862
H 0.5000 1.3918 -0.7085
H 0.5000 -0.2674 -1.3593
9
Frame 17
H 0.7843 -0.9971 0.8107
O 0.4168 -0.1156 0.6672
C 0.8687 0.3757 -0.5645
C -1.5238 -0.5067 0.2377
H -1.7766 0.5610 0.2320
H -1.7267 -0.8264 1.2679
H 1.9615 0.3739 -0.5798
H 0.4980 1.3948 -0.7036
H 0.4980 -0.2597 -1.3676
9
Frame 18
H 0.7740 -1.0036 0.8041
O 0.4024 -0.1237 0.6604
C 0.8632 0.3765 -0.5651
C -1.5086 -0.5058 0.2426
H -1.7642 0.5613 0.2330
H -1.7149 -0.8231 1.2729
H 1.9563 0.3725 -0.5734
H 0.4959 1.3977 -0.6987
H 0.4959 -0.2520 -1.3758
9
Frame 19
H 0.7637 -1.0100 0.7975
O 0.3879 -0.1318 0.6536
C 0.8578 0.3773 -0.5657
C -1.4934 -0.5049 0.2474
H -1.7518 0.5616 0.2340
H -1.7030 -0.8197 1.2779
H 1.9512 0.3711 -0.5671
H 0.4938 1.4006 -0.6938
H 0.4938 -0.2442 -1.3840
9
Frame 20
H 0.7534 -1.0164 0.7908
O 0.3734 -0.1399 0.6468
C 0.8524 0.3780 -0.5663
C -1.4781 -0.5040 0.2523
H -1.7393 0.5619 0.2351
H -1.6912 -0.8164 1.2829
H 1.9460 0.3697 -0.5607
H 0.4918 1.4036 -0.6889
H 0.4918 -0.2365 -1.3923
9
Frame 21
H 0.7431 -1.0229 0.7842
O 0.3590 -0.1480 0.6400
C 0.8469 0.3788 -0.5669
C -1.4629 -0.5031 0.2572
H -1.7269 0.5622 0.2361
H -1.6793 -0.8130 1.2879
H 1.9409 0.3683 -0.5543
H 0.4897 1.4065 -0.6840
H 0.4897 -0.2288 -1.4005
9
Frame 22
H 0.7327 -1.0293 0.7776
O 0.3445 -0.1562 0.6332
C 0.8415 0.3796 -0.5674
C -1.4477 -0.5022 0.2621
H -1.7145 0.5625 0.2372
H -1.6675 -0.8097 1.2930
H 1.9357 0.3669 -0.5479
H 0.4876 1.4094 -0.6791
H 0.4876 -0.2211 -1.4087
9
Frame 23
H 0.7224 -1.0357 0.7710
O 0.3300 -0.1643 0.6264
C 0.8361 0.3804 -0.5680
C -1.4325 -0.5013 0.2670
H -1.7021 0.5627 0.2382
H -1.6556 -0.8064 1.2980
H 1.9306 0.3654 -0.5415
H 0.4855 1.4123 -0.6742
H 0.4855 -0.2133 -1.4169
9
Frame 24
H 0.7121 -1.0422 0.7643
O 0.3156 -0.1724 0.6196
C 0.8306 0.3811 -0.5686
C -1.4172 -0.5004 0.2719
H -1.6896 0.5630 0.2393
H -1.6438 -0.8030 1.3030
H 1.9254 0.3640 -0.5351
H 0.4835 1.4153 -0.6693
H 0.4835 -0.2056 -1.4252
9
Frame 25
H 0.7018 -1.0486 0.7577
O 0.3011 -0.1805 0.6128
C 0.8252 0.3819 -0.5692
C -1.4020 -0.4995 0.2768
H -1.6772 0.5633 0.2403
H -1.6319 -0.7997 1.3080
H 1.9203 0.3626 -0.5287
H 0.4814 1.4182 -0.6644
H 0.4814 -0.1979 -1.4334
