9
Frame 1
C -1.1138 0.0632 -0.2290
O 0.0711 -0.6343 0.2617
H -0.0101 -0.8429 1.1984
H -1.9928 -0.5292 -0.0201
H -0.9781 0.1618 -1.2916
H -1.1729 1.0367 0.2313
C 1.5009 0.4691 0.2678
H 1.4792 0.6300 -0.8195
H 2.2165 -0.3545 0.4011
9
Frame 2
C -1.1152 0.0571 -0.2345
O 0.0644 -0.6391 0.2646
H 0.0163 -0.8063 1.2231
H -1.9971 -0.5291 -0.0222
H -0.9791 0.1465 -1.2972
H -1.1741 1.0345 0.2154
C 1.5032 0.4501 0.2729
H 1.4693 0.6548 -0.7872
H 2.2124 -0.3686 0.3652
9
Frame 3
C -1.1167 0.0510 -0.2400
O 0.0578 -0.6438 0.2675
H 0.0427 -0.7696 1.2478
H -2.0014 -0.5290 -0.0244
H -0.9801 0.1312 -1.3029
H -1.1754 1.0322 0.1994
C 1.5055 0.4311 0.2780
H 1.4593 0.6796 -0.7548
H 2.2083 -0.3827 0.3294
9
Frame 4
C -1.1181 0.0449 -0.2455
O 0.0511 -0.6486 0.2705
H 0.0692 -0.7330 1.2725
H -2.0058 -0.5289 -0.0265
H -0.9811 0.1158 -1.3085
H -1.1766 1.0300 0.1835
C 1.5077 0.4120 0.2830
H 1.4494 0.7044 -0.7225
H 2.2042 -0.3968 0.2935
9
Frame 5
C -1.1196 0.0388 -0.2510
O 0.0445 -0.6534 0.2734
H 0.0956 -0.6963 1.2973
H -2.0101 -0.5288 -0.0287
H -0.9821 0.1005 -1.3141
H -1.1779 1.0278 0.1676
C 1.5100 0.3930 0.2881
H 1.4395 0.7292 -0.6901
H 2.2001 -0.4109 0.2577
9
Frame 6
C -1.1210 0.0328 -0.2565
O 0.0378 -0.6581 0.2763
H 0.1220 -0.6597 1.3220
H -2.0144 -0.5287 -0.0308
H -0.9831 0.0852 -1.3197
H -1.1791 1.0255 0.1516
C 1.5123 0.3740 0.2932
H 1.4296 0.7540 -0.6578
H 2.1959 -0.4250 0.2218
9
Frame 7
C -1.1225 0.0267 -0.2620
O 0.0312 -0.6629 0.2792
H 0.1484 -0.6230 1.3467
H -2.0187 -0.5286 -0.0330
H -0.9841 0.0699 -1.3254
H -1.1803 1.0233 0.1357
C 1.5146 0.3550 0.2983
H 1.4196 0.7788 -0.6254
H 2.1918 -0.4391 0.1859
9
Frame 8
C -1.1239 0.0206 -0.2675
O 0.0245 -0.6677 0.2822
H 0.1749 -0.5864 1.3714
H -2.0231 -0.5284 -0.0351
H -0.9851 0.0546 -1.3310
H -1.1816 1.0210 0.1198
C 1.5168 0.3359 0.3033
H 1.4097 0.8036 -0.5931
H 2.1877 -0.4532 0.1501
9
Frame 9
C -1.1254 0.0145 -0.2731
O 0.0179 -0.6724 0.2851
H 0.2013 -0.5497 1.3961
H -2.0274 -0.5283 -0.0373
H -0.9861 0.0393 -1.3366
H -1.1828 1.0188 0.1038
C 1.5191 0.3169 0.3084
H 1.3998 0.8283 -0.5607
H 2.1836 -0.4673 0.1142
9
Frame 10
C -1.1268 0.0084 -0.2786
O 0.0112 -0.6772 0.2880
H 0.2277 -0.5131 1.4208
H -2.0317 -0.5282 -0.0394
H -0.9870 0.0239 -1.3423
H -1.1841 1.0166 0.0879
C 1.5214 0.2979 0.3135
H 1.3899 0.8531 -0.5284
H 2.1795 -0.4814 0.0783
9
Frame 11
C -1.1283 0.0023 -0.2841
O 0.0046 -0.6820 0.2909
H 0.2541 -0.4764 1.4456
H -2.0360 -0.5281 -0.0416
H -0.9880 0.0086 -1.3479
H -1.1853 1.0143 0.0720
C 1.5237 0.2789 0.3186
H 1.3799 0.8779 -0.4960
H 2.1754 -0.4955 0.0425
9
Frame 12
C -1.1297 -0.0038 -0.2896
O -0.0021 -0.6867 0.2938
H 0.2806 -0.4398 1.4703
H -2.0404 -0.5280 -0.0437
H -0.9890 -0.0067 -1.3535
H -1.1866 1.0121 0.0561
C 1.5259 0.2598 0.3237
H 1.3700 0.9027 -0.4637
H 2.1713 -0.5096 0.0066
9
Frame 13
C -1.1312 -0.0099 -0.2951
O -0.0087 -0.6915 0.2968
H 0.3070 -0.4032 1.4950
H -2.0447 -0.5279 -0.0459
H -0.9900 -0.0220 -1.3591
H -1.1878 1.0099 0.0401
C 1.5282 0.2408 0.3287
H 1.3601 0.9275 -0.4313
H 2.1672 -0.5237 -0.0292
9
Frame 14
C -1.1326 -0.0160 -0.3006
O -0.0154 -0.6963 0.2997
H 0.3334 -0.3665 1.5197
H -2.0490 -0.5278 -0.0480
H -0.9910 -0.0373 -1.3648
H -1.1890 1.0076 0.0242
C 1.5305 0.2218 0.3338
H 1.3501 0.9523 -0.3990
H 2.1631 -0.5378 -0.0651
9
Frame 15
C -1.1341 -0.0220 -0.3061
O -0.0220 -0.7010 0.3026
H 0.3598 -0.3299 1.5444
H -2.0533 -0.5277 -0.0502
H -0.9920 -0.0526 -1.3704
H -1.1903 1.0054 0.0083
C 1.5328 0.2028 0.3389
H 1.3402 0.9771 -0.3666
H 2.1589 -0.5520 -0.1010
9
Frame 16
C -1.1335 -0.0233 -0.3112
O -0.0261 -0.6722 0.3233
H 0.3914 -0.3525 1.5539
H -2.0534 -0.5204 -0.0452
H -0.9851 -0.0873 -1.3663
H -1.1923 1.0070 -0.0317
C 1.5200 0.1979 0.3341
H 1.3482 0.9934 -0.3238
H 2.1308 -0.5426 -0.1332
9
Frame 17
C -1.1329 -0.0245 -0.3163
O -0.0301 -0.6433 0.3440
H 0.4229 -0.3752 1.5634
H -2.0534 -0.5131 -0.0401
H -0.9782 -0.1219 -1.3622
H -1.1944 1.0086 -0.0716
C 1.5073 0.1931 0.3293
H 1.3562 1.0097 -0.2810
H 2.1026 -0.5333 -0.1655
9
Frame 18
C -1.1323 -0.0258 -0.3214
O -0.0342 -0.6145 0.3647
H 0.4545 -0.3979 1.5730
H -2.0535 -0.5058 -0.0351
H -0.9714 -0.1566 -1.3581
H -1.1965 1.0101 -0.1116
C 1.4945 0.1882 0.3244
H 1.3643 1.0260 -0.2383
H 2.0745 -0.5239 -0.1977
9
Frame 19
C -1.1317 -0.0270 -0.3265
O -0.0382 -0.5856 0.3854
H 0.4860 -0.4205 1.5825
H -2.0535 -0.4985 -0.0301
H -0.9645 -0.1912 -1.3540
H -1.1986 1.0117 -0.1515
C 1.4818 0.1834 0.3196
H 1.3723 1.0423 -0.1955
H 2.0463 -0.5146 -0.2300
9
Frame 20
C -1.1311 -0.0282 -0.3316
O -0.0423 -0.5567 0.4061
H 0.5176 -0.4432 1.5920
H -2.0535 -0.4912 -0.0251
H -0.9576 -0.2258 -1.3499
H -1.2006 1.0133 -0.1914
C 1.4691 0.1786 0.3148
H 1.3803 1.0586 -0.1527
H 2.0182 -0.5052 -0.2623
9
Frame 21
C -1.1305 -0.0295 -0.3367
O -0.0463 -0.5279 0.4268
H 0.5491 -0.4659 1.6015
H -2.0536 -0.4839 -0.0201
H -0.9507 -0.2605 -1.3458
H -1.2027 1.0149 -0.2314
C 1.4563 0.1737 0.3100
H 1.3883 1.0749 -0.1099
H 1.9900 -0.4959 -0.2945
9
Frame 22
C -1.1298 -0.0307 -0.3418
O -0.0504 -0.4990 0.4476
H 0.5807 -0.4885 1.6110
H -2.0536 -0.4766 -0.0150
H -0.9438 -0.2951 -1.3417
H -1.2048 1.0165 -0.2713
C 1.4436 0.1689 0.3052
H 1.3963 1.0913 -0.0671
H 1.9619 -0.4865 -0.3268
9
Frame 23
C -1.1292 -0.0320 -0.3469
O -0.0544 -0.4702 0.4683
H 0.6122 -0.5112 1.6205
H -2.0537 -0.4693 -0.0100
H -0.9369 -0.3298 -1.3376
H -1.2069 1.0181 -0.3113
C 1.4308 0.1640 0.3004
H 1.4043 1.1076 -0.0243
H 1.9337 -0.4772 -0.3590
9
Frame 24
C -1.1286 -0.0332 -0.3520
O -0.0585 -0.4413 0.4890
H 0.6438 -0.5339 1.6300
H -2.0537 -0.4620 -0.0050
H -0.9300 -0.3644 -1.3335
H -1.2089 1.0197 -0.3512
C 1.4181 0.1592 0.2956
H 1.4123 1.1239 0.0185
H 1.9056 -0.4678 -0.3913
9
Frame 25
C -1.1280 -0.0344 -0.3571
O -0.0625 -0.4124 0.5097
H 0.6753 -0.5565 1.6395
H -2.0537 -0.4547 0.0000
H -0.9231 -0.3990 -1.3294
H -1.2110 1.0213 -0.3911
C 1.4054 0.1544 0.2908
H 1.4203 1.1402 0.0613
H 1.8774 -0.4585 -0.4236
9
Frame 26
C -1.1274 -0.0357 -0.3622
O -0.0666 -0.3836 0.5304
H 0.7069 -0.5792 1.6491
H -2.0538 -0.4474 0.0050
H -0.9163 -0.4337 -1.3253
H -1.2131 1.0228 -0.4311
C 1.3926 0.1495 0.2859
H 1.4284 1.1565 0.1040
H 1.8493 -0.4491 -0.4558
9
Frame 27
C -1.1268 -0.0369 -0.3673
O -0.0706 -0.3547 0.5511
H 0.7384 -0.6019 1.6586
H -2.0538 -0.4401 0.0101
H -0.9094 -0.4683 -1.3212
H -1.2152 1.0244 -0.4710
C 1.3799 0.1447 0.2811
H 1.4364 1.1728 0.1468
H 1.8211 -0.4398 -0.4881
9
Frame 28
C -1.1283 -0.0370 -0.3693
O -0.0788 -0.3526 0.5575
H 0.7989 -0.5886 1.6458
H -2.0572 -0.4366 0.0068
H -0.9089 -0.4742 -1.3217
H -1.2151 1.0250 -0.4801
C 1.3598 0.1375 0.2864
H 1.4256 1.1691 0.1610
H 1.8041 -0.4423 -0.4865
9
Frame 29
C -1.1297 -0.0371 -0.3713
O -0.0870 -0.3506 0.5639
H 0.8594 -0.5754 1.6331
H -2.0607 -0.4332 0.0035
H -0.9085 -0.4802 -1.3221
H -1.2151 1.0255 -0.4891
C 1.3396 0.1302 0.2917
H 1.4148 1.1655 0.1752
H 1.7871 -0.4447 -0.4849
9
Frame 30
C -1.1312 -0.0372 -0.3734
O -0.0952 -0.3485 0.5703
H 0.9199 -0.5621 1.6204
H -2.0641 -0.4297 0.0003
H -0.9080 -0.4861 -1.3226
H -1.2150 1.0261 -0.4981
C 1.3195 0.1230 0.2970
H 1.4040 1.1618 0.1893
H 1.7701 -0.4472 -0.4833
9
Frame 31
C -1.1327 -0.0373 -0.3754
O -0.1033 -0.3464 0.5768
H 0.9804 -0.5489 1.6076
H -2.0675 -0.4262 -0.0030
H -0.9076 -0.4920 -1.3230
H -1.2150 1.0266 -0.5072
C 1.2994 0.1158 0.3024
H 1.3932 1.1581 0.2035
H 1.7531 -0.4497 -0.4817
9
Frame 32
C -1.1341 -0.0374 -0.3774
O -0.1115 -0.3443 0.5832
H 1.0409 -0.5357 1.5949
H -2.0709 -0.4227 -0.0062
H -0.9072 -0.4979 -1.3235
H -1.2149 1.0272 -0.5162
C 1.2793 0.1086 0.3077
H 1.3824 1.1545 0.2177
H 1.7361 -0.4521 -0.4801
9
Frame 33
C -1.1356 -0.0375 -0.3794
O -0.1197 -0.3423 0.5896
H 1.1015 -0.5224 1.5822
H -2.0744 -0.4193 -0.0095
H -0.9067 -0.5038 -1.3239
H -1.2149 1.0277 -0.5252
C 1.2592 0.1014 0.3130
H 1.3716 1.1508 0.2318
H 1.7190 -0.4546 -0.4785
9
Frame 34
C -1.1371 -0.0376 -0.3814
O -0.1279 -0.3402 0.5960
H 1.1620 -0.5092 1.5694
H -2.0778 -0.4158 -0.0128
H -0.9063 -0.5097 -1.3244
H -1.2149 1.0283 -0.5343
C 1.2391 0.0942 0.3183
H 1.3609 1.1471 0.2460
H 1.7020 -0.4570 -0.4769
9
Frame 35
C -1.1385 -0.0377 -0.3834
O -0.1361 -0.3381 0.6024
H 1.2225 -0.4959 1.5567
H -2.0812 -0.4123 -0.0160
H -0.9058 -0.5157 -1.3248
H -1.2148 1.0288 -0.5433
C 1.2189 0.0869 0.3236
H 1.3501 1.1435 0.2602
H 1.6850 -0.4595 -0.4753
9
Frame 36
C -1.1400 -0.0378 -0.3855
O -0.1442 -0.3360 0.6089
H 1.2830 -0.4827 1.5440
H -2.0846 -0.4088 -0.0193
H -0.9054 -0.5216 -1.3253
H -1.2148 1.0294 -0.5523
C 1.1988 0.0797 0.3289
H 1.3393 1.1398 0.2744
H 1.6680 -0.4620 -0.4737
9
Frame 37
C -1.1414 -0.0379 -0.3875
O -0.1524 -0.3340 0.6153
H 1.3435 -0.4694 1.5312
H -2.0881 -0.4054 -0.0225
H -0.9049 -0.5275 -1.3257
H -1.2147 1.0299 -0.5614
C 1.1787 0.0725 0.3342
H 1.3285 1.1362 0.2885
H 1.6510 -0.4644 -0.4721
9
Frame 38
C -1.1429 -0.0380 -0.3895
O -0.1606 -0.3319 0.6217
H 1.4040 -0.4562 1.5185
H -2.0915 -0.4019 -0.0258
H -0.9045 -0.5334 -1.3262
H -1.2147 1.0305 -0.5704
C 1.1586 0.0653 0.3395
H 1.3177 1.1325 0.3027
H 1.6340 -0.4669 -0.4705
9
Frame 39
C -1.1437 -0.0385 -0.3888
O -0.1718 -0.3376 0.6284
H 1.4560 -0.4322 1.4904
H -2.0964 -0.3994 -0.0329
H -0.9004 -0.5333 -1.3246
H -1.2103 1.0305 -0.5689
C 1.1480 0.0557 0.3551
H 1.3017 1.1242 0.3058
H 1.6170 -0.4695 -0.4647
9
Frame 40
C -1.1441 -0.0391 -0.3877
O -0.1838 -0.3441 0.6367
H 1.5066 -0.4073 1.4596
H -2.1014 -0.3964 -0.0407
H -0.8949 -0.5331 -1.3225
H -1.2045 1.0305 -0.5666
C 1.1385 0.0458 0.3717
H 1.2847 1.1158 0.3085
H 1.5990 -0.4719 -0.4590
9
Frame 41
C -1.1439 -0.0399 -0.3863
O -0.1966 -0.3518 0.6462
H 1.5552 -0.3810 1.4262
H -2.1063 -0.3931 -0.0494
H -0.8882 -0.5328 -1.3198
H -1.1974 1.0305 -0.5634
C 1.1302 0.0356 0.3891
H 1.2666 1.1071 0.3106
H 1.5804 -0.4746 -0.4533
9
Frame 42
C -1.1431 -0.0407 -0.3844
O -0.2106 -0.3599 0.6577
H 1.6016 -0.3545 1.3897
H -2.1110 -0.3893 -0.0590
H -0.8796 -0.5332 -1.3160
H -1.1888 1.0303 -0.5600
C 1.1235 0.0256 0.4074
H 1.2479 1.0984 0.3131
H 1.5602 -0.4768 -0.4484
9
Frame 43
C -1.1416 -0.0418 -0.3818
O -0.2252 -0.3721 0.6697
H 1.6454 -0.3261 1.3510
H -2.1162 -0.3834 -0.0687
H -0.8718 -0.5331 -1.3121
H -1.1765 1.0298 -0.5560
C 1.1189 0.0156 0.4259
H 1.2259 1.0900 0.3147
H 1.5411 -0.4789 -0.4428
9
Frame 44
C -1.1398 -0.0425 -0.3791
O -0.2420 -0.3792 0.6853
H 1.6860 -0.2993 1.3091
H -2.1202 -0.3808 -0.0807
H -0.8588 -0.5333 -1.3065
H -1.1681 1.0296 -0.5514
C 1.1167 0.0061 0.4449
H 1.2085 1.0809 0.3172
H 1.5179 -0.4818 -0.4387
