14
1
H               -1.7402      0.7297      1.2570
C               -0.8243      0.2113      0.9422
C               -0.7828     -0.5439     -0.1460
C                0.3588      0.4710      1.7730
H               -1.6824     -0.7624     -0.7387
C                0.4708     -1.3117     -0.5738
O                0.3718      1.1186      2.7993
H                1.3022      0.0001      1.3901
O               -0.2802      0.5805     -1.9886
O               -0.2193      1.9006     -1.3869
H                0.7156      2.0907     -1.3002
H                1.3632     -0.7558     -0.2641
H                0.4733     -1.4289     -1.6635
H                0.4733     -2.3000     -0.1001
14
M1
H               -1.7398      0.7401      1.2364
C               -0.8222      0.2227      0.9275
C               -0.7804     -0.5392     -0.1663
C                0.3568      0.4823      1.7548
H               -1.6855     -0.7707     -0.7447
C                0.4692     -1.3246     -0.5733
O                0.3722      1.1364      2.7814
H                1.3014      0.0091      1.3767
O               -0.2864      0.5913     -1.9668
O               -0.2123      1.9036     -1.3498
H                0.7245      2.0850     -1.2646
H                1.3644     -0.7633     -0.2824
H                0.4688     -1.4748     -1.6590
H                0.4688     -2.2982     -0.0699
14
M2
H               -1.7411      0.7490      1.2174
C               -0.8209      0.2333      0.9148
C               -0.7778     -0.5337     -0.1856
C                0.3537      0.4931      1.7390
H               -1.6882     -0.7795     -0.7496
C                0.4684     -1.3336     -0.5742
O                0.3729      1.1552      2.7649
H                1.2977      0.0136      1.3681
O               -0.2981      0.6006     -1.9465
O               -0.2017      1.9042     -1.3144
H                0.7381      2.0715     -1.2333
H                1.3660     -0.7679     -0.2994
H                0.4657     -1.5117     -1.6556
H                0.4657     -2.2938     -0.0458
14
M3
H               -1.7405      0.7591      1.1981
C               -0.8186      0.2444      0.9018
C               -0.7739     -0.5280     -0.2049
C                0.3512      0.5020      1.7242
H               -1.6893     -0.7886     -0.7540
C                0.4692     -1.3425     -0.5731
O                0.3735      1.1688      2.7514
H                1.2952      0.0177      1.3588
O               -0.3063      0.6070     -1.9275
O               -0.1997      1.9051     -1.2858
H                0.7414      2.0658     -1.2063
H                1.3690     -0.7723     -0.3153
H                0.4642     -1.5505     -1.6491
H                0.4642     -2.2877     -0.0183
14
M4
H               -1.7395      0.7685      1.1800
C               -0.8154      0.2553      0.8897
C               -0.7690     -0.5215     -0.2240
C                0.3496      0.5100      1.7105
H               -1.6891     -0.7964     -0.7582
C                0.4702     -1.3508     -0.5715
O                0.3750      1.1802      2.7399
H                1.2935      0.0220      1.3496
O               -0.3120      0.6108     -1.9097
O               -0.2013      1.9052     -1.2612
H                0.7403      2.0631     -1.1821
H                1.3727     -0.7773     -0.3312
H                0.4624     -1.5885     -1.6414
H                0.4624     -2.2802      0.0093
14
M5
H               -1.7387      0.7768      1.1633
C               -0.8122      0.2659      0.8786
C               -0.7642     -0.5146     -0.2426
C                0.3477      0.5176      1.6984
H               -1.6889     -0.8043     -0.7612
C                0.4708     -1.3578     -0.5707
O                0.3760      1.1918      2.7294
H                1.2914      0.0251      1.3429
O               -0.3195      0.6139     -1.8924
O               -0.2009      1.9048     -1.2382
H                0.7416      2.0578     -1.1606
H                1.3762     -0.7823     -0.3467
H                0.4602     -1.6230     -1.6341
H                0.4602     -2.2720      0.0339
14
M6
H               -1.7375      0.7848      1.1476
C               -0.8086      0.2765      0.8681
C               -0.7590     -0.5071     -0.2611
C                0.3460      0.5246      1.6872
H               -1.6881     -0.8112     -0.7640
C                0.4716     -1.3641     -0.5696
O                0.3768      1.2026      2.7202
H                1.2898      0.0282      1.3371
O               -0.3271      0.6158     -1.8764
O               -0.2014      1.9038     -1.2179
H                0.7420      2.0524     -1.1419
H                1.3800     -0.7872     -0.3619
H                0.4578     -1.6562     -1.6259
H                0.4578     -2.2625      0.0581
14
M7
H               -1.7359      0.7928      1.1330
C               -0.8048      0.2872      0.8580
C               -0.7535     -0.4993     -0.2792
C                0.3442      0.5305      1.6773
H               -1.6867     -0.8182     -0.7661
C                0.4728     -1.3693     -0.5679
O                0.3772      1.2111      2.7129
H                1.2883      0.0306      1.3322
O               -0.3348      0.6157     -1.8614
O               -0.2037      1.9023     -1.2014
H                0.7403      2.0477     -1.1268
H                1.3841     -0.7914     -0.3761
H                0.4561     -1.6878     -1.6165
H                0.4561     -2.2515      0.0822
14
M8
H               -1.7341      0.8006      1.1187
C               -0.8007      0.2979      0.8484
C               -0.7477     -0.4913     -0.2970
C                0.3426      0.5356      1.6681
H               -1.6846     -0.8252     -0.7675
C                0.4743     -1.3736     -0.5660
O                0.3777      1.2176      2.7072
H                1.2871      0.0330      1.3272
O               -0.3418      0.6139     -1.8472
O               -0.2073      1.9003     -1.1873
H                0.7370      2.0437     -1.1138
H                1.3884     -0.7952     -0.3897
H                0.4546     -1.7176     -1.6064
H                0.4546     -2.2395      0.1056
14
M9
H               -1.7331      0.8091      1.1043
C               -0.7972      0.3090      0.8393
C               -0.7424     -0.4831     -0.3141
C                0.3399      0.5401      1.6604
H               -1.6828     -0.8335     -0.7669
C                0.4764     -1.3752     -0.5646
O                0.3768      1.2226      2.7035
H                1.2844      0.0340      1.3240
O               -0.3534      0.6113     -1.8341
O               -0.2078      1.8966     -1.1745
H                0.7378      2.0335     -1.1042
H                1.3926     -0.7961     -0.4020
H                0.4545     -1.7422     -1.5971
H                0.4545     -2.2260      0.1260
14
M10
H               -1.7332      0.8165      1.0923
C               -0.7945      0.3206      0.8312
C               -0.7381     -0.4739     -0.3307
C                0.3369      0.5455      1.6528
H               -1.6819     -0.8399     -0.7657
C                0.4768     -1.3763     -0.5623
O                0.3746      1.2241      2.7029
H                1.2826      0.0407      1.3173
O               -0.3645      0.6070     -1.8219
O               -0.2029      1.8914     -1.1642
H                0.7443      2.0190     -1.0989
H                1.3955     -0.7974     -0.4137
H                0.4523     -1.7663     -1.5863
H                0.4523     -2.2112      0.1473
14
M11
H               -1.7339      0.8227      1.0814
C               -0.7923      0.3316      0.8232
C               -0.7345     -0.4650     -0.3473
C                0.3336      0.5508      1.6450
H               -1.6810     -0.8462     -0.7646
C                0.4768     -1.3767     -0.5605
O                0.3724      1.2273      2.7008
H                1.2803      0.0466      1.3110
O               -0.3761      0.6031     -1.8090
O               -0.1957      1.8858     -1.1528
H                0.7533      2.0024     -1.0932
H                1.3978     -0.7982     -0.4252
H                0.4498     -1.7885     -1.5759
H                0.4498     -2.1961      0.1669
14
M12
H               -1.7326      0.8300      1.0702
C               -0.7887      0.3424      0.8155
C               -0.7295     -0.4562     -0.3636
C                0.3307      0.5536      1.6391
H               -1.6783     -0.8533     -0.7628
C                0.4788     -1.3760     -0.5584
O                0.3704      1.2296      2.6996
H                1.2781      0.0475      1.3090
O               -0.3878      0.5972     -1.7975
O               -0.1962      1.8806     -1.1461
H                0.7538      1.9909     -1.0901
H                1.4017     -0.7976     -0.4359
H                0.4499     -1.8090     -1.5648
H                0.4499     -2.1798      0.1861
14
M13
H               -1.7306      0.8393      1.0567
C               -0.7847      0.3528      0.8083
C               -0.7237     -0.4480     -0.3792
C                0.3277      0.5545      1.6349
H               -1.6741     -0.8626     -0.7592
C                0.4830     -1.3735     -0.5566
O                0.3686      1.2303      2.6999
H                1.2745      0.0439      1.3099
O               -0.4016      0.5900     -1.7865
O               -0.2013      1.8756     -1.1420
H                0.7495      1.9810     -1.0892
H                1.4069     -0.7945     -0.4456
H                0.4529     -1.8258     -1.5545
H                0.4529     -2.1627      0.2033
14
M14
H               -1.7275      0.8484      1.0437
C               -0.7798      0.3632      0.8012
C               -0.7170     -0.4399     -0.3948
C                0.3254      0.5546      1.6310
H               -1.6687     -0.8710     -0.7558
C                0.4876     -1.3714     -0.5542
O                0.3675      1.2293      2.7009
H                1.2718      0.0399      1.3107
O               -0.4124      0.5808     -1.7762
O               -0.2114      1.8709     -1.1409
H                0.7394      1.9763     -1.0890
H                1.4128     -0.7923     -0.4551
H                0.4561     -1.8434     -1.5428
H                0.4561     -2.1453      0.2213
14
M15
H               -1.7242      0.8589      1.0308
C               -0.7753      0.3735      0.7947
C               -0.7110     -0.4318     -0.4098
C                0.3222      0.5534      1.6286
H               -1.6633     -0.8813     -0.7501
C                0.4931     -1.3667     -0.5522
O                0.3645      1.2269      2.7037
H                1.2679      0.0339      1.3140
O               -0.4276      0.5709     -1.7665
O               -0.2196      1.8651     -1.1419
H                0.7317      1.9667     -1.0929
H                1.4187     -0.7863     -0.4638
H                0.4613     -1.8567     -1.5320
H                0.4613     -2.1262      0.2374
14
M16
H               -1.7221      0.8680      1.0198
C               -0.7717      0.3832      0.7897
C               -0.7058     -0.4238     -0.4236
C                0.3184      0.5520      1.6268
H               -1.6581     -0.8914     -0.7432
C                0.4980     -1.3614     -0.5492
O                0.3612      1.2237      2.7074
H                1.2636      0.0286      1.3169
O               -0.4432      0.5602     -1.7559
O               -0.2241      1.8581     -1.1430
H                0.7280      1.9583     -1.1081
H                1.4228     -0.7736     -0.5274
H                0.4363     -1.9103     -1.4958
H                0.4966     -2.0715      0.2856
14
M17
H               -1.7184      0.8795      1.0079
C               -0.7674      0.3928      0.7851
C               -0.7002     -0.4163     -0.4367
C                0.3142      0.5481      1.6272
H               -1.6513     -0.9039     -0.7339
C                0.5051     -1.3539     -0.5463
O                0.3570      1.2181      2.7132
H                1.2583      0.0189      1.3236
O               -0.4617      0.5476     -1.7460
O               -0.2332      1.8507     -1.1477
H                0.7194      1.9511     -1.1286
H                1.4294     -0.7657     -0.5161
H                0.4540     -1.9057     -1.4919
H                0.4948     -2.0615      0.2906
14
M18
H               -1.7128      0.8927      0.9942
C               -0.7620      0.4020      0.7808
C               -0.6933     -0.4093     -0.4495
C                0.3104      0.5425      1.6286
H               -1.6425     -0.9176     -0.7235
C                0.5142     -1.3458     -0.5435
O                0.3536      1.2113      2.7197
H                1.2524      0.0051      1.3325
O               -0.4794      0.5334     -1.7364
O               -0.2497      1.8441     -1.1555
H                0.7025      1.9495     -1.1500
H                1.4374     -0.7564     -0.5054
H                0.4736     -1.9006     -1.4878
H                0.4960     -2.0507      0.2955
14
M19
H               -1.7071      0.9074      0.9813
C               -0.7570      0.4113      0.7772
C               -0.6873     -0.4024     -0.4615
C                0.3054      0.5353      1.6316
H               -1.6332     -0.9332     -0.7102
C                0.5244     -1.3349     -0.5404
O                0.3480      1.2019      2.7284
H                1.2450     -0.0107      1.3437
O               -0.5017      0.5180     -1.7271
O               -0.2643      1.8359     -1.1657
H                0.6876      1.9434     -1.1794
H                1.4451     -0.7420     -0.4960
H                0.4947     -1.8936     -1.4828
H                0.5008     -2.0365      0.3012
14
M20
H               -1.7051      0.9143      0.9729
C               -0.7540      0.4186      0.7747
C               -0.6828     -0.3941     -0.4745
C                0.3016      0.5334      1.6305
H               -1.6266     -0.9416     -0.7030
C                0.5282     -1.3288     -0.5370
O                0.3458      1.1990      2.7321
H                1.2404     -0.0158      1.3459
O               -0.5138      0.5055     -1.7157
O               -0.2687      1.8291     -1.1715
H                0.6830      1.9358     -1.1981
H                1.4494     -0.7374     -0.4814
H                0.5097     -1.8882     -1.4793
H                0.4926     -2.0297      0.3048
14
M21
H               -1.6961      0.9366      0.9577
C               -0.7489      0.4282      0.7731
C               -0.6773     -0.3887     -0.4833
C                0.2933      0.5193      1.6397
H               -1.6130     -0.9664     -0.6800
C                0.5453     -1.3087     -0.5348
O                0.3361      1.1824      2.7473
H                1.2268     -0.0452      1.3679
O               -0.5500      0.4855     -1.7060
O               -0.2886      1.8175     -1.1905
H                0.6616      1.9242     -1.2498
H                1.4588     -0.7058     -0.4792
H                0.5376     -1.8745     -1.4734
H                0.5148     -2.0045      0.3115
14
M22
H               -1.6882      0.9537      0.9450
C               -0.7438      0.4365      0.7714
C               -0.6718     -0.3822     -0.4937
C                0.2871      0.5089      1.6452
H               -1.6000     -0.9847     -0.6623
C                0.5577     -1.2937     -0.5319
O                0.3297      1.1701      2.7582
H                1.2163     -0.0668      1.3826
O               -0.5746      0.4670     -1.6954
O               -0.3071      1.8079     -1.2070
H                0.6411      1.9173     -1.2893
H                1.4665     -0.6840     -0.4720
H                0.5612     -1.8636     -1.4681
H                0.5257     -1.9861      0.3171
14
M23
H               -1.6823      0.9672      0.9352
C               -0.7397      0.4439      0.7707
C               -0.6671     -0.3750     -0.5043
C                0.2815      0.5010      1.6488
H               -1.5886     -0.9992     -0.6471
C                0.5674     -1.2803     -0.5275
O                0.3240      1.1587      2.7682
H                1.2075     -0.0827      1.3928
O               -0.5951      0.4492     -1.6842
O               -0.3196      1.7987     -1.2247
H                0.6264      1.9079     -1.3289
H                1.4724     -0.6658     -0.4607
H                0.5828     -1.8531     -1.4618
H                0.5306     -1.9701      0.3234
