16
Frame 1
H 3.2500 -1.0475 0.1741
C 2.2370 -0.7164 0.0615
N -0.4401 0.0970 -0.2071
C 1.9521 0.6345 -0.1190
C 1.1973 -1.5960 0.0960
C -0.1900 -1.1450 -0.0946
C 0.5752 1.1562 -0.2463
H 2.7402 1.3680 -0.1522
H 1.3543 -2.6490 0.2421
H -0.9967 -1.8485 -0.1600
O -1.7214 0.5324 -0.5657
P -2.9925 0.8911 0.7008
Cl -3.3901 -1.0220 1.1753
Cl -4.3073 1.3163 -0.6982
Cl 0.2961 2.3461 1.0523
H 0.4358 1.6828 -1.2591
16
Frame 2
H 3.2514 -1.0495 0.1878
C 2.2379 -0.7177 0.0723
N -0.4336 0.0983 -0.2028
C 1.9525 0.6337 -0.0973
C 1.1998 -1.5992 0.0907
C -0.1825 -1.1476 -0.1012
C 0.5791 1.1506 -0.2296
H 2.7412 1.3665 -0.1193
H 1.3601 -2.6528 0.2263
H -0.9900 -1.8492 -0.1762
O -1.7354 0.5385 -0.5642
P -2.9916 0.8961 0.7016
Cl -3.3903 -1.0188 1.1863
Cl -4.3300 1.3159 -0.6809
Cl 0.2982 2.3670 0.9988
H 0.4622 1.6592 -1.2853
16
Frame 3
H 3.2527 -1.0515 0.2015
C 2.2388 -0.7191 0.0831
N -0.4270 0.0997 -0.1985
C 1.9530 0.6329 -0.0755
C 1.2022 -1.6024 0.0855
C -0.1751 -1.1502 -0.1079
C 0.5831 1.1449 -0.2128
H 2.7421 1.3649 -0.0864
H 1.3660 -2.6567 0.2106
H -0.9833 -1.8498 -0.1924
O -1.7494 0.5445 -0.5628
P -2.9907 0.9011 0.7025
Cl -3.3905 -1.0155 1.1972
Cl -4.3527 1.3154 -0.6636
Cl 0.3004 2.3879 0.9454
H 0.4887 1.6355 -1.3115
16
Frame 4
H 3.2541 -1.0536 0.2152
C 2.2398 -0.7204 0.0939
N -0.4205 0.1010 -0.1942
C 1.9534 0.6321 -0.0538
C 1.2047 -1.6056 0.0802
C -0.1676 -1.1529 -0.1145
C 0.5870 1.1393 -0.1961
H 2.7431 1.3634 -0.0535
H 1.3718 -2.6605 0.1948
H -0.9766 -1.8505 -0.2086
O -1.7634 0.5506 -0.5613
P -2.9898 0.9061 0.7033
Cl -3.3907 -1.0123 1.2082
Cl -4.3754 1.3150 -0.6463
Cl 0.3025 2.4088 0.8919
H 0.5151 1.6119 -1.3377
16
Frame 5
H 3.2554 -1.0556 0.2289
C 2.2407 -0.7218 0.1047
N -0.4140 0.1024 -0.1899
C 1.9539 0.6313 -0.0321
C 1.2071 -1.6088 0.0749
C -0.1602 -1.1555 -0.1212
C 0.5910 1.1337 -0.1794
H 2.7440 1.3619 -0.0206
H 1.3776 -2.6643 0.1790
H -0.9699 -1.8511 -0.2248
O -1.7774 0.5567 -0.5598
P -2.9889 0.9111 0.7042
Cl -3.3909 -1.0090 1.2192
Cl -4.3981 1.3145 -0.6290
Cl 0.3046 2.4297 0.8385
H 0.5416 1.5882 -1.3639
16
Frame 6
H 3.2568 -1.0576 0.2427
C 2.2416 -0.7231 0.1155
N -0.4074 0.1037 -0.1856
C 1.9543 0.6305 -0.0103
C 1.2096 -1.6120 0.0697
C -0.1527 -1.1581 -0.1278
C 0.5949 1.1280 -0.1627
H 2.7450 1.3603 0.0123
H 1.3835 -2.6682 0.1632
H -0.9633 -1.8518 -0.2411
O -1.7914 0.5627 -0.5584
P -2.9881 0.9161 0.7050
Cl -3.3911 -1.0058 1.2302
Cl -4.4209 1.3141 -0.6117
Cl 0.3068 2.4507 0.7850
H 0.5680 1.5646 -1.3901
16
Frame 7
H 3.2581 -1.0596 0.2564
C 2.2425 -0.7245 0.1263
N -0.4009 0.1051 -0.1813
C 1.9548 0.6297 0.0114
C 1.2120 -1.6152 0.0644
C -0.1453 -1.1607 -0.1345
C 0.5989 1.1224 -0.1459
H 2.7459 1.3588 0.0452
H 1.3893 -2.6720 0.1475
H -0.9566 -1.8524 -0.2573
O -1.8054 0.5688 -0.5569
P -2.9872 0.9211 0.7059
Cl -3.3913 -1.0025 1.2411
Cl -4.4436 1.3136 -0.5944
Cl 0.3089 2.4716 0.7316
H 0.5945 1.5409 -1.4163
16
Frame 8
H 3.2595 -1.0616 0.2701
C 2.2434 -0.7258 0.1371
N -0.3944 0.1064 -0.1770
C 1.9552 0.6289 0.0332
C 1.2145 -1.6184 0.0591
C -0.1378 -1.1633 -0.1411
C 0.6028 1.1167 -0.1292
H 2.7469 1.3573 0.0781
H 1.3952 -2.6758 0.1317
H -0.9499 -1.8531 -0.2735
O -1.8194 0.5749 -0.5555
P -2.9863 0.9261 0.7067
Cl -3.3915 -0.9993 1.2521
Cl -4.4663 1.3132 -0.5771
Cl 0.3111 2.4925 0.6781
H 0.6209 1.5173 -1.4425
16
Frame 9
H 3.2609 -1.0637 0.2838
C 2.2444 -0.7271 0.1479
N -0.3878 0.1077 -0.1727
C 1.9557 0.6281 0.0549
C 1.2169 -1.6216 0.0539
C -0.1304 -1.1660 -0.1478
C 0.6068 1.1111 -0.1125
H 2.7478 1.3557 0.1110
H 1.4010 -2.6797 0.1159
H -0.9432 -1.8538 -0.2897
O -1.8334 0.5809 -0.5540
P -2.9854 0.9311 0.7075
Cl -3.3917 -0.9961 1.2631
Cl -4.4890 1.3127 -0.5598
Cl 0.3132 2.5134 0.6247
H 0.6473 1.4937 -1.4687
16
Frame 10
H 3.2622 -1.0657 0.2975
C 2.2453 -0.7285 0.1587
N -0.3813 0.1091 -0.1684
C 1.9561 0.6273 0.0766
C 1.2194 -1.6248 0.0486
C -0.1229 -1.1686 -0.1544
C 0.6107 1.1055 -0.0958
H 2.7488 1.3542 0.1439
H 1.4068 -2.6835 0.1001
H -0.9365 -1.8544 -0.3059
O -1.8474 0.5870 -0.5525
P -2.9845 0.9361 0.7084
Cl -3.3919 -0.9928 1.2741
Cl -4.5117 1.3123 -0.5425
Cl 0.3153 2.5343 0.5712
H 0.6738 1.4700 -1.4949
16
Frame 11
H 3.2636 -1.0677 0.3112
C 2.2462 -0.7298 0.1696
N -0.3748 0.1104 -0.1640
C 1.9566 0.6266 0.0984
C 1.2218 -1.6281 0.0433
C -0.1155 -1.1712 -0.1611
C 0.6147 1.0998 -0.0790
H 2.7497 1.3527 0.1767
H 1.4127 -2.6873 0.0844
H -0.9298 -1.8551 -0.3221
O -1.8615 0.5931 -0.5511
P -2.9836 0.9412 0.7092
Cl -3.3922 -0.9896 1.2850
Cl -4.5344 1.3118 -0.5252
Cl 0.3175 2.5552 0.5178
H 0.7002 1.4464 -1.5212
16
Frame 12
H 3.2649 -1.0697 0.3249
C 2.2471 -0.7312 0.1804
N -0.3683 0.1118 -0.1597
C 1.9570 0.6258 0.1201
C 1.2243 -1.6313 0.0380
C -0.1080 -1.1738 -0.1677
C 0.6186 1.0942 -0.0623
H 2.7507 1.3512 0.2096
H 1.4185 -2.6911 0.0686
H -0.9231 -1.8557 -0.3383
O -1.8755 0.5992 -0.5496
P -2.9827 0.9462 0.7101
Cl -3.3924 -0.9863 1.2960
Cl -4.5571 1.3114 -0.5079
Cl 0.3196 2.5761 0.4643
H 0.7267 1.4227 -1.5474
16
Frame 13
H 3.2663 -1.0718 0.3386
C 2.2481 -0.7325 0.1912
N -0.3617 0.1131 -0.1554
C 1.9575 0.6250 0.1418
C 1.2267 -1.6345 0.0328
C -0.1006 -1.1765 -0.1744
C 0.6226 1.0886 -0.0456
H 2.7516 1.3496 0.2425
H 1.4243 -2.6950 0.0528
H -0.9164 -1.8564 -0.3545
O -1.8895 0.6052 -0.5481
P -2.9818 0.9512 0.7109
Cl -3.3926 -0.9831 1.3070
Cl -4.5798 1.3109 -0.4906
Cl 0.3217 2.5970 0.4109
H 0.7531 1.3991 -1.5736
16
Frame 14
H 3.2677 -1.0738 0.3523
C 2.2490 -0.7338 0.2020
N -0.3552 0.1144 -0.1511
C 1.9579 0.6242 0.1636
C 1.2292 -1.6377 0.0275
C -0.0931 -1.1791 -0.1810
C 0.6265 1.0829 -0.0289
H 2.7526 1.3481 0.2754
H 1.4302 -2.6988 0.0370
H -0.9097 -1.8571 -0.3707
O -1.9035 0.6113 -0.5467
P -2.9809 0.9562 0.7117
Cl -3.3928 -0.9799 1.3180
Cl -4.6025 1.3105 -0.4733
Cl 0.3239 2.6179 0.3574
H 0.7795 1.3755 -1.5998
16
Frame 15
H 3.2690 -1.0758 0.3660
C 2.2499 -0.7352 0.2128
N -0.3487 0.1158 -0.1468
C 1.9584 0.6234 0.1853
C 1.2316 -1.6409 0.0222
C -0.0857 -1.1817 -0.1877
C 0.6305 1.0773 -0.0121
H 2.7535 1.3466 0.3083
H 1.4360 -2.7026 0.0213
H -0.9030 -1.8577 -0.3869
O -1.9175 0.6174 -0.5452
P -2.9800 0.9612 0.7126
Cl -3.3930 -0.9766 1.3289
Cl -4.6252 1.3100 -0.4560
Cl 0.3260 2.6388 0.3040
H 0.8060 1.3518 -1.6260
16
Frame 16
H 3.2704 -1.0778 0.3798
C 2.2508 -0.7365 0.2236
N -0.3421 0.1171 -0.1425
C 1.9588 0.6226 0.2071
C 1.2341 -1.6441 0.0170
C -0.0782 -1.1843 -0.1943
C 0.6344 1.0716 0.0046
H 2.7545 1.3450 0.3412
H 1.4419 -2.7065 0.0055
H -0.8964 -1.8584 -0.4032
O -1.9315 0.6234 -0.5438
P -2.9792 0.9662 0.7134
Cl -3.3932 -0.9734 1.3399
Cl -4.6480 1.3096 -0.4387
Cl 0.3282 2.6598 0.2505
H 0.8324 1.3282 -1.6522
16
Frame 17
H 3.2717 -1.0798 0.3935
C 2.2517 -0.7379 0.2344
N -0.3356 0.1185 -0.1382
C 1.9593 0.6218 0.2288
C 1.2365 -1.6473 0.0117
C -0.0708 -1.1869 -0.2010
C 0.6384 1.0660 0.0213
H 2.7554 1.3435 0.3741
H 1.4477 -2.7103 -0.0103
H -0.8897 -1.8590 -0.4194
O -1.9455 0.6295 -0.5423
P -2.9783 0.9712 0.7143
Cl -3.3934 -0.9701 1.3509
Cl -4.6707 1.3091 -0.4214
Cl 0.3303 2.6807 0.1971
H 0.8589 1.3045 -1.6784
16
Frame 18
H 3.2731 -1.0819 0.4072
C 2.2527 -0.7392 0.2452
N -0.3291 0.1198 -0.1339
C 1.9597 0.6210 0.2505
C 1.2390 -1.6505 0.0064
C -0.0633 -1.1896 -0.2076
C 0.6423 1.0604 0.0380
H 2.7564 1.3420 0.4070
H 1.4535 -2.7141 -0.0261
H -0.8830 -1.8597 -0.4356
O -1.9595 0.6356 -0.5408
P -2.9774 0.9762 0.7151
Cl -3.3936 -0.9669 1.3619
Cl -4.6934 1.3087 -0.4041
Cl 0.3324 2.7016 0.1436
H 0.8853 1.2809 -1.7046
16
Frame 19
H 3.2744 -1.0839 0.4209
C 2.2536 -0.7406 0.2560
N -0.3225 0.1212 -0.1296
C 1.9602 0.6202 0.2723
C 1.2414 -1.6537 0.0012
C -0.0559 -1.1922 -0.2143
C 0.6463 1.0547 0.0548
H 2.7573 1.3404 0.4399
H 1.4594 -2.7180 -0.0418
H -0.8763 -1.8603 -0.4518
O -1.9735 0.6416 -0.5394
P -2.9765 0.9812 0.7160
Cl -3.3938 -0.9636 1.3728
Cl -4.7161 1.3082 -0.3868
Cl 0.3346 2.7225 0.0902
H 0.9118 1.2572 -1.7308
16
Frame 20
H 3.2758 -1.0859 0.4346
C 2.2545 -0.7419 0.2668
N -0.3160 0.1225 -0.1253
C 1.9606 0.6194 0.2940
C 1.2439 -1.6569 -0.0041
C -0.0484 -1.1948 -0.2209
C 0.6502 1.0491 0.0715
H 2.7583 1.3389 0.4728
H 1.4652 -2.7218 -0.0576
H -0.8696 -1.8610 -0.4680
O -1.9875 0.6477 -0.5379
P -2.9756 0.9862 0.7168
Cl -3.3940 -0.9604 1.3838
Cl -4.7388 1.3078 -0.3695
Cl 0.3367 2.7434 0.0367
H 0.9382 1.2336 -1.7570
