glucose.mol
  -ISIS-  01050417553D

 24 24  0  0  0  0  0  0  0  0999 V2000
    1.5940    0.2412    0.5880 O   0  0  0  0  0  0  0  0  0  0  0  0
    1.0593   -0.7105    1.4912 C   0  0  1  0  0  0  0  0  0  0  0  0
   -0.4445   -0.7376    1.5480 C   0  0  1  0  0  0  0  0  0  0  0  0
   -1.0459   -0.8175    0.1635 C   0  0  2  0  0  0  0  0  0  0  0  0
   -0.4881    0.3142   -0.6700 C   0  0  1  0  0  0  0  0  0  0  0  0
    1.0295    0.2215   -0.7170 C   0  0  1  0  0  0  0  0  0  0  0  0
   -1.0376    0.1938   -1.9831 O   0  0  0  0  0  0  0  0  0  0  0  0
   -2.4647   -0.6887    0.2452 O   0  0  0  0  0  0  0  0  0  0  0  0
    1.5673   -1.9611    1.0321 O   0  0  0  0  0  0  0  0  0  0  0  0
   -0.8532   -1.8889    2.2887 O   0  0  0  0  0  0  0  0  0  0  0  0
    1.6623    1.3726   -1.4863 C   0  0  0  0  0  0  0  0  0  0  0  0
    1.0539    1.4576   -2.7763 O   0  0  0  0  0  0  0  0  0  0  0  0
    1.5030   -0.5166    2.4941 H   0  0  0  0  0  0  0  0  0  0  0  0
   -0.8228    0.1645    2.0832 H   0  0  0  0  0  0  0  0  0  0  0  0
   -0.8270   -1.8043   -0.3060 H   0  0  0  0  0  0  0  0  0  0  0  0
   -0.8171    1.2945   -0.2553 H   0  0  0  0  0  0  0  0  0  0  0  0
    1.3249   -0.7323   -1.2168 H   0  0  0  0  0  0  0  0  0  0  0  0
   -1.9711    0.1204   -1.8669 H   0  0  0  0  0  0  0  0  0  0  0  0
   -2.7593   -1.3582    0.8395 H   0  0  0  0  0  0  0  0  0  0  0  0
    2.4644   -1.8136    0.7908 H   0  0  0  0  0  0  0  0  0  0  0  0
   -0.2541   -2.5809    2.0559 H   0  0  0  0  0  0  0  0  0  0  0  0
    2.7578    1.2396   -1.6252 H   0  0  0  0  0  0  0  0  0  0  0  0
    1.4804    2.3416   -0.9677 H   0  0  0  0  0  0  0  0  0  0  0  0
    0.2852    1.9942   -2.6649 H   0  0  0  0  0  0  0  0  0  0  0  0
  1  2  1  1  0  0  0
  1  6  1  6  0  0  0
  2  3  1  0  0  0  0
  2  9  1  0  0  0  0
  2 13  1  1  0  0  0
  3  4  1  6  0  0  0
  3 10  1  1  0  0  0
  3 14  1  1  0  0  0
  4  5  1  6  0  0  0
  4  8  1  0  0  0  0
  4 15  1  0  0  0  0
  5  6  1  0  0  0  0
  5  7  1  6  0  0  0
  5 16  1  0  0  0  0
  6 11  1  6  0  0  0
  6 17  1  6  0  0  0
  7 18  1  0  0  0  0
  8 19  1  1  0  0  0
  9 20  1  0  0  0  0
 10 21  1  0  0  0  0
 11 12  1  6  0  0  0
 11 22  1  0  0  0  0
 11 23  1  1  0  0  0
 12 24  1  0  0  0  0
M  END
