
  ACD/Labs11221116343D

 24 23  0  0  0  0  0  0  0  0  1 V2000
   20.1400   -4.1927   -0.8454 C   0  0  0  0  0  0  0  0  0  0  0  0
   19.0368   -4.9335   -1.5953 C   0  0  0  0  0  0  0  0  0  0  0  0
   17.7877   -4.0596   -1.6702 C   0  0  0  0  0  0  0  0  0  0  0  0
   21.4550   -4.9557   -0.9767 C   0  0  0  0  0  0  0  0  0  0  0  0
   22.5574   -4.1934   -0.2863 C   0  0  0  0  0  0  0  0  0  0  0  0
   16.6632   -4.8305   -2.3158 C   0  0  0  0  0  0  0  0  0  0  0  0
   22.2863   -3.2868    0.4679 O   0  0  0  0  0  0  0  0  0  0  0  0
   16.9081   -5.7682   -3.0404 O   0  0  0  0  0  0  0  0  0  0  0  0
   17.4027   -3.6766   -0.3588 O   0  0  0  0  0  0  0  0  0  0  0  0
   21.7759   -5.1052   -2.3511 O   0  0  0  0  0  0  0  0  0  0  0  0
   19.4805   -5.2326   -2.9101 O   0  0  0  0  0  0  0  0  0  0  0  0
   20.2938   -2.8940   -1.3973 O   0  0  0  0  0  0  0  0  0  0  0  0
   23.8564   -4.5344   -0.5001 O   0  0  0  0  0  0  0  0  0  0  0  0
   15.3719   -4.4763   -2.0773 O   0  0  0  0  0  0  0  0  0  0  0  0
   19.8647   -4.1133    0.2315 H   0  0  0  0  0  0  0  0  0  0  0  0
   18.7948   -5.8781   -1.0560 H   0  0  0  0  0  0  0  0  0  0  0  0
   18.0087   -3.1524   -2.2780 H   0  0  0  0  0  0  0  0  0  0  0  0
   21.3483   -5.9594   -0.5038 H   0  0  0  0  0  0  0  0  0  0  0  0
   17.3648   -2.6969   -0.1085 H   0  0  0  0  0  0  0  0  0  0  0  0
   21.8723   -6.0300   -2.7505 H   0  0  0  0  0  0  0  0  0  0  0  0
   19.5346   -6.1946   -3.2193 H   0  0  0  0  0  0  0  0  0  0  0  0
   20.1525   -2.0775   -0.8164 H   0  0  0  0  0  0  0  0  0  0  0  0
   24.5962   -4.0300   -0.0285 H   0  0  0  0  0  0  0  0  0  0  0  0
   14.6171   -4.9967   -2.5056 H   0  0  0  0  0  0  0  0  0  0  0  0
  2  1  1  0  0  0  0
  4  1  1  0  0  0  0
  1 12  1  0  0  0  0
  3  2  1  0  0  0  0
  2 11  1  0  0  0  0
  6  3  1  0  0  0  0
  3  9  1  0  0  0  0
  5  4  1  0  0  0  0
  4 10  1  0  0  0  0
  7  5  2  0  0  0  0
 13  5  1  0  0  0  0
  8  6  2  0  0  0  0
 14  6  1  0  0  0  0
 15  1  1  0  0  0  0
 16  2  1  0  0  0  0
 17  3  1  0  0  0  0
 18  4  1  0  0  0  0
 19  9  1  0  0  0  0
 20 10  1  0  0  0  0
 21 11  1  0  0  0  0
 22 12  1  0  0  0  0
 23 13  1  0  0  0  0
 24 14  1  0  0  0  0
M  END
