
  -ISIS-  01060418223D

 45 46  0  0  0  0  0  0  0  0999 V2000
   -1.0816    3.9177    1.6100 C   0  0  3  0  0  0  0  0  0  0  0  0
   -1.4022    3.2686    0.2689 C   0  0  3  0  0  0  0  0  0  0  0  0
   -0.4690    2.2066   -0.0646 O   0  0  0  0  0  0  0  0  0  0  0  0
   -0.2164    1.2303    0.9038 C   0  0  3  0  0  0  0  0  0  0  0  0
    0.2245    1.9421    2.2668 C   0  0  3  0  0  0  0  0  0  0  0  0
   -0.9294    2.8735    2.6939 C   0  0  3  0  0  0  0  0  0  0  0  0
   -0.2781    4.3246    2.0447 H   0  0  0  0  0  0  0  0  0  0  0  0
   -2.0601    4.8777    1.8110 O   0  0  0  0  0  0  0  0  0  0  0  0
   -1.3700    4.3676   -0.7912 O   0  0  0  0  0  0  0  0  0  0  0  0
   -2.3049    2.8406    0.3141 H   0  0  0  0  0  0  0  0  0  0  0  0
    0.4298    1.0056    3.3097 O   0  0  0  0  0  0  0  0  0  0  0  0
    1.0818    2.4325    2.1098 H   0  0  0  0  0  0  0  0  0  0  0  0
   -1.6226    2.1869    2.9131 H   0  0  0  0  0  0  0  0  0  0  0  0
   -0.6105    3.5004    3.9229 O   0  0  0  0  0  0  0  0  0  0  0  0
   -1.8022    5.4353    2.5351 H   0  0  0  0  0  0  0  0  0  0  0  0
    0.7816    1.4328    4.1015 H   0  0  0  0  0  0  0  0  0  0  0  0
   -1.3631    4.0263    4.2223 H   0  0  0  0  0  0  0  0  0  0  0  0
    0.9205    0.4053    0.2824 C   0  0  0  0  0  0  0  0  0  0  0  0
   -1.0038    0.6587    1.1349 H   0  0  0  0  0  0  0  0  0  0  0  0
    1.2622   -0.6977    1.0874 O   0  0  0  0  0  0  0  0  0  0  0  0
    0.6277    0.0737   -0.6144 H   0  0  0  0  0  0  0  0  0  0  0  0
    1.7246    0.9902    0.1758 H   0  0  0  0  0  0  0  0  0  0  0  0
    2.0522   -1.1291    0.7327 H   0  0  0  0  0  0  0  0  0  0  0  0
   -0.0681    4.7221   -1.5395 C   0  0  3  0  0  0  0  0  0  0  0  0
    1.2281    4.2877   -0.8600 O   0  0  0  0  0  0  0  0  0  0  0  0
    2.2405    4.7991   -1.6344 C   0  0  3  0  0  0  0  0  0  0  0  0
    0.2687    6.2609   -1.4933 C   0  0  3  0  0  0  0  0  0  0  0  0
    1.8038    6.2804   -1.8244 C   0  0  3  0  0  0  0  0  0  0  0  0
   -0.2141    4.2153   -3.0701 C   0  0  0  0  0  0  0  0  0  0  0  0
   -0.3034    2.8040   -3.1801 O   0  0  0  0  0  0  0  0  0  0  0  0
   -1.0412    4.6183   -3.4617 H   0  0  0  0  0  0  0  0  0  0  0  0
    0.5847    4.5252   -3.5859 H   0  0  0  0  0  0  0  0  0  0  0  0
   -1.1019    2.4962   -2.7368 H   0  0  0  0  0  0  0  0  0  0  0  0
    0.2977    6.5030   -0.1239 O   0  0  0  0  0  0  0  0  0  0  0  0
   -0.3171    6.8507   -2.0491 H   0  0  0  0  0  0  0  0  0  0  0  0
    0.6449    7.3816    0.0384 H   0  0  0  0  0  0  0  0  0  0  0  0
    2.2101    6.8695   -3.0187 O   0  0  0  0  0  0  0  0  0  0  0  0
    2.2769    6.9130   -1.2112 H   0  0  0  0  0  0  0  0  0  0  0  0
    1.9120    7.7900   -2.9923 H   0  0  0  0  0  0  0  0  0  0  0  0
    3.5629    4.5227   -1.0697 C   0  0  0  0  0  0  0  0  0  0  0  0
    2.3649    4.3754   -2.5316 H   0  0  0  0  0  0  0  0  0  0  0  0
    4.5221    5.0187   -1.9332 O   0  0  0  0  0  0  0  0  0  0  0  0
    3.6487    4.9683   -0.1786 H   0  0  0  0  0  0  0  0  0  0  0  0
    3.6839    3.5358   -0.9624 H   0  0  0  0  0  0  0  0  0  0  0  0
    5.3946    4.8179   -1.5649 H   0  0  0  0  0  0  0  0  0  0  0  0
  1  2  1  0  0  0  0
  2  3  1  0  0  0  0
  3  4  1  0  0  0  0
  4  5  1  0  0  0  0
  5  6  1  0  0  0  0
  6  1  1  0  0  0  0
  1  7  1  0  0  0  0
  1  8  1  0  0  0  0
  2  9  1  0  0  0  0
  2 10  1  0  0  0  0
  5 11  1  0  0  0  0
  5 12  1  0  0  0  0
  6 13  1  0  0  0  0
  6 14  1  0  0  0  0
  8 15  1  0  0  0  0
 11 16  1  0  0  0  0
 14 17  1  0  0  0  0
  4 18  1  0  0  0  0
  4 19  1  0  0  0  0
 18 20  1  0  0  0  0
 18 21  1  0  0  0  0
 18 22  1  0  0  0  0
 20 23  1  0  0  0  0
  9 24  1  0  0  0  0
 24 25  1  0  0  0  0
 25 26  1  0  0  0  0
 24 27  1  0  0  0  0
 26 28  1  0  0  0  0
 28 27  1  0  0  0  0
 24 29  1  0  0  0  0
 29 30  1  0  0  0  0
 29 31  1  0  0  0  0
 29 32  1  0  0  0  0
 30 33  1  0  0  0  0
 27 34  1  0  0  0  0
 27 35  1  0  0  0  0
 34 36  1  0  0  0  0
 28 37  1  0  0  0  0
 28 38  1  0  0  0  0
 37 39  1  0  0  0  0
 26 40  1  0  0  0  0
 26 41  1  0  0  0  0
 40 42  1  0  0  0  0
 40 43  1  0  0  0  0
 40 44  1  0  0  0  0
 42 45  1  0  0  0  0
M  END
