36
Frame 1
H -3.6109 2.1798 0.0998
C -2.9207 2.8787 -0.3950
C -1.1678 4.6428 -1.6511
C -1.5422 2.6328 -0.3543
C -3.4159 3.9981 -1.0598
C -2.5406 4.8827 -1.6894
C -0.6683 3.5230 -0.9875
C -1.0518 1.4120 0.3532
H -4.4984 4.1840 -1.0886
H -2.9324 5.7651 -2.2137
H 0.4153 3.3264 -0.9520
H -0.4751 5.3378 -2.1456
H -1.3629 0.4887 -0.2120
H -1.4932 1.3579 1.3865
O 0.3675 1.4539 0.4405
C 0.9137 0.3919 1.2235
H 2.0213 0.5988 1.2165
C 0.6689 -0.9914 0.6294
H 0.5041 0.4471 2.2650
C 1.7501 -1.9872 1.1895
H 0.7325 -0.9316 -0.4914
O -0.6687 -1.3816 0.9332
H 1.3475 -2.3169 2.2070
C 1.7685 -3.2581 0.2981
O 2.9523 -1.4419 1.2510
H 1.7857 -2.9709 -0.7764
H 2.7138 -3.8076 0.5351
H -0.6192 -2.2215 1.4103
C -0.6659 -4.1178 -0.7208
S 0.4702 -4.4506 0.5777
H -0.9611 -3.0428 -0.7329
H -1.5646 -4.7464 -0.5369
H -0.2359 -4.3779 -1.7125
H 4.7048 -2.6103 1.3314
O 4.9784 -2.6828 0.4097
H 4.3009 -2.1644 -0.0372
36
Frame 2
H -3.6056 2.1785 0.1191
C -2.9228 2.8798 -0.3826
C -1.1880 4.6523 -1.6529
C -1.5441 2.6303 -0.3697
C -3.4272 4.0068 -1.0274
C -2.5609 4.8958 -1.6640
C -0.6794 3.5248 -1.0096
C -1.0436 1.4013 0.3165
H -4.5099 4.1954 -1.0341
H -2.9599 5.7843 -2.1722
H 0.4044 3.3257 -0.9954
H -0.5024 5.3506 -2.1537
H -1.3537 0.4852 -0.2607
H -1.4786 1.3290 1.3514
O 0.3765 1.4468 0.3944
C 0.9280 0.3956 1.1884
H 2.0355 0.5998 1.1688
C 0.6736 -0.9962 0.6185
H 0.5279 0.4676 2.2328
C 1.7509 -1.9893 1.1903
H 0.7319 -0.9546 -0.5032
O -0.6646 -1.3730 0.9364
H 1.3453 -2.3095 2.2094
C 1.7715 -3.2671 0.3098
O 2.9541 -1.4448 1.2517
H 1.8092 -2.9882 -0.7664
H 2.7081 -3.8231 0.5663
H -0.6186 -2.2119 1.4152
C -0.6630 -4.1002 -0.7292
S 0.4592 -4.4460 0.5773
H -0.9527 -3.0235 -0.7371
H -1.5666 -4.7253 -0.5564
H -0.2247 -4.3563 -1.7188
H 4.7338 -2.6334 1.3963
O 4.9909 -2.7273 0.4743
H 4.2654 -2.1799 0.0166
36
Frame 3
H -3.6033 2.1660 0.1080
C -2.9233 2.8738 -0.3882
C -1.1954 4.6637 -1.6435
C -1.5438 2.6286 -0.3790
C -3.4319 4.0052 -1.0220
C -2.5691 4.9028 -1.6510
C -0.6826 3.5317 -1.0114
C -1.0388 1.3948 0.2952
H -4.5153 4.1905 -1.0258
H -2.9714 5.7949 -2.1504
H 0.4018 3.3361 -1.0000
H -0.5125 5.3689 -2.1382
H -1.3434 0.4834 -0.2923
H -1.4754 1.3090 1.3284
O 0.3810 1.4452 0.3752
C 0.9342 0.4001 1.1761
H 2.0415 0.6039 1.1534
C 0.6781 -0.9959 0.6172
H 0.5359 0.4798 2.2207
C 1.7494 -1.9873 1.2017
H 0.7409 -0.9641 -0.5046
O -0.6625 -1.3652 0.9337
H 1.3394 -2.2977 2.2216
C 1.7719 -3.2716 0.3317
O 2.9546 -1.4446 1.2655
H 1.8250 -3.0008 -0.7461
H 2.7019 -3.8321 0.6034
H -0.6220 -2.2054 1.4108
C -0.6556 -4.0947 -0.7303
S 0.4488 -4.4399 0.5915
H -0.9427 -3.0175 -0.7445
H -1.5627 -4.7175 -0.5676
H -0.2050 -4.3541 -1.7136
H 4.7774 -2.6657 1.3875
O 4.9844 -2.7539 0.4550
H 4.1906 -2.1705 0.0320
36
Frame 4
H -3.6028 2.1411 0.0775
C -2.9254 2.8609 -0.4050
C -1.2041 4.6807 -1.6257
C -1.5437 2.6288 -0.3863
C -3.4394 3.9942 -1.0309
C -2.5799 4.9068 -1.6427
C -0.6858 3.5469 -1.0013
C -1.0334 1.3928 0.2796
H -4.5244 4.1691 -1.0423
H -2.9864 5.8003 -2.1360
H 0.4003 3.3615 -0.9829
H -0.5238 5.3978 -2.1068
H -1.3369 0.4838 -0.3121
H -1.4675 1.2998 1.3132
O 0.3866 1.4457 0.3560
C 0.9429 0.4073 1.1633
H 2.0502 0.6101 1.1343
C 0.6828 -0.9932 0.6172
H 0.5492 0.4959 2.2088
C 1.7487 -1.9829 1.2128
H 0.7477 -0.9723 -0.5049
O -0.6597 -1.3536 0.9359
H 1.3369 -2.2815 2.2350
C 1.7706 -3.2744 0.3552
O 2.9566 -1.4421 1.2761
H 1.8388 -3.0132 -0.7243
H 2.6933 -3.8400 0.6419
H -0.6242 -2.1955 1.4108
C -0.6506 -4.0865 -0.7282
S 0.4355 -4.4297 0.6092
H -0.9414 -3.0103 -0.7449
H -1.5576 -4.7129 -0.5796
H -0.1847 -4.3425 -1.7052
H 4.8285 -2.7338 1.3603
O 4.9778 -2.8001 0.4177
H 4.1254 -2.1591 0.0543
36
Frame 5
H -3.6021 2.0771 -0.0366
C -2.9267 2.8304 -0.4680
C -1.2100 4.7341 -1.5601
C -1.5409 2.6319 -0.4056
C -3.4469 3.9721 -1.0729
C -2.5896 4.9268 -1.6203
C -0.6855 3.5919 -0.9564
C -1.0246 1.3871 0.2387
H -4.5349 4.1205 -1.1188
H -3.0010 5.8269 -2.0973
H 0.4037 3.4326 -0.9050
H -0.5315 5.4843 -1.9906
H -1.3115 0.4878 -0.3756
H -1.4697 1.2669 1.2648
O 0.3941 1.4517 0.3313
C 0.9490 0.4208 1.1489
H 2.0561 0.6241 1.1219
C 0.6908 -0.9846 0.6144
H 0.5519 0.5180 2.1924
C 1.7455 -1.9711 1.2324
H 0.7691 -0.9758 -0.5071
O -0.6567 -1.3369 0.9207
H 1.3290 -2.2470 2.2584
C 1.7648 -3.2764 0.3983
O 2.9579 -1.4343 1.2948
H 1.8377 -3.0346 -0.6856
H 2.6846 -3.8413 0.6957
H -0.6301 -2.1725 1.4073
C -0.6479 -4.1070 -0.6879
S 0.4225 -4.4190 0.6698
H -0.9427 -3.0325 -0.7298
H -1.5544 -4.7340 -0.5379
H -0.1688 -4.3806 -1.6536
H 4.9084 -2.8538 1.2499
O 4.9596 -2.8517 0.2975
H 4.0507 -2.1317 0.0719
36
Frame 6
H -3.5973 2.0647 -0.1136
C -2.9194 2.8299 -0.5115
C -1.1966 4.7639 -1.5186
C -1.5364 2.6390 -0.4168
C -3.4338 3.9791 -1.1063
C -2.5734 4.9490 -1.6111
C -0.6779 3.6142 -0.9250
C -1.0257 1.3859 0.2146
H -4.5196 4.1215 -1.1777
H -2.9802 5.8550 -2.0802
H 0.4091 3.4609 -0.8483
H -0.5156 5.5261 -1.9157
H -1.2798 0.5004 -0.4257
H -1.4997 1.2373 1.2185
O 0.3844 1.4611 0.3546
C 0.9242 0.4218 1.1701
H 2.0269 0.6333 1.1790
C 0.6963 -0.9758 0.6090
H 0.4971 0.4990 2.1999
C 1.7371 -1.9625 1.2449
H 0.8103 -0.9495 -0.5054
O -0.6522 -1.3433 0.8630
H 1.3121 -2.2262 2.2695
C 1.7604 -3.2726 0.4222
O 2.9521 -1.4261 1.3187
H 1.8118 -3.0415 -0.6640
H 2.6911 -3.8245 0.7061
H -0.6406 -2.1623 1.3724
C -0.6343 -4.1718 -0.6339
S 0.4331 -4.4195 0.7317
H -0.9430 -3.1077 -0.7146
H -1.5326 -4.8034 -0.4635
H -0.1475 -4.4717 -1.5853
H 4.9420 -2.8840 1.0832
O 4.9117 -2.8180 0.1655
H 4.0055 -2.0816 0.0945
36
Frame 7
H -3.5925 2.0522 -0.1906
C -2.9121 2.8293 -0.5550
C -1.1831 4.7938 -1.4772
C -1.5319 2.6462 -0.4281
C -3.4206 3.9862 -1.1397
C -2.5572 4.9712 -1.6020
C -0.6702 3.6365 -0.8937
C -1.0268 1.3847 0.1904
H -4.5043 4.1225 -1.2367
H -2.9593 5.8832 -2.0630
H 0.4146 3.4892 -0.7917
H -0.4997 5.5678 -1.8407
H -1.2481 0.5130 -0.4759
H -1.5297 1.2077 1.1723
O 0.3747 1.4705 0.3778
C 0.8994 0.4228 1.1913
H 1.9977 0.6425 1.2361
C 0.7019 -0.9669 0.6037
H 0.4422 0.4799 2.2073
C 1.7287 -1.9538 1.2575
H 0.8514 -0.9233 -0.5037
O -0.6477 -1.3496 0.8053
H 1.2953 -2.2054 2.2805
C 1.7559 -3.2688 0.4461
O 2.9462 -1.4179 1.3426
H 1.7860 -3.0483 -0.6424
H 2.6975 -3.8077 0.7165
H -0.6510 -2.1522 1.3376
C -0.6207 -4.2366 -0.5799
S 0.4436 -4.4199 0.7936
H -0.9433 -3.1830 -0.6994
H -1.5108 -4.8728 -0.3892
H -0.1261 -4.5628 -1.5170
H 4.9757 -2.9142 0.9164
O 4.8638 -2.7842 0.0335
H 3.9604 -2.0315 0.1172
36
Frame 8
H -3.5877 2.0398 -0.2677
C -2.9048 2.8288 -0.5985
C -1.1696 4.8236 -1.4357
C -1.5274 2.6533 -0.4393
C -3.4075 3.9932 -1.1731
C -2.5409 4.9934 -1.5928
C -0.6625 3.6589 -0.8623
C -1.0279 1.3835 0.1663
H -4.4889 4.1234 -1.2956
H -2.9385 5.9113 -2.0459
H 0.4200 3.5175 -0.7351
H -0.4838 5.6095 -1.7658
H -1.2164 0.5256 -0.5260
H -1.5596 1.1781 1.1260
O 0.3650 1.4798 0.4011
C 0.8746 0.4237 1.2125
H 1.9685 0.6517 1.2932
C 0.7075 -0.9581 0.5983
H 0.3874 0.4609 2.2148
C 1.7203 -1.9451 1.2700
H 0.8926 -0.8970 -0.5020
O -0.6432 -1.3560 0.7476
H 1.2784 -2.1846 2.2916
C 1.7515 -3.2651 0.4700
O 2.9404 -1.4097 1.3666
H 1.7601 -3.0552 -0.6209
H 2.7039 -3.7910 0.7269
H -0.6615 -2.1420 1.3027
C -0.6072 -4.3013 -0.5259
S 0.4541 -4.4204 0.8554
H -0.9436 -3.2582 -0.6842
H -1.4890 -4.9421 -0.3148
H -0.1048 -4.6540 -1.4487
H 5.0093 -2.9444 0.7497
O 4.8159 -2.7504 -0.0985
H 3.9152 -1.9813 0.1398
36
Frame 9
H -3.5829 2.0274 -0.3447
C -2.8976 2.8283 -0.6420
C -1.1562 4.8534 -1.3943
C -1.5230 2.6604 -0.4505
C -3.3944 4.0002 -1.2064
C -2.5247 5.0156 -1.5836
C -0.6549 3.6812 -0.8310
C -1.0289 1.3822 0.1422
H -4.4736 4.1244 -1.3546
H -2.9177 5.9394 -2.0288
H 0.4254 3.5457 -0.6784
H -0.4679 5.6513 -1.6909
H -1.1848 0.5382 -0.5761
H -1.5896 1.1486 1.0797
O 0.3554 1.4892 0.4243
C 0.8498 0.4247 1.2338
H 1.9394 0.6609 1.3503
C 0.7130 -0.9493 0.5929
H 0.3326 0.4418 2.2222
C 1.7119 -1.9365 1.2825
H 0.9338 -0.8707 -0.5004
O -0.6386 -1.3623 0.6900
H 1.2615 -2.1637 2.3027
C 1.7471 -3.2613 0.4940
O 2.9346 -1.4016 1.3905
H 1.7342 -3.0620 -0.5993
H 2.7104 -3.7742 0.7372
H -0.6719 -2.1318 1.2679
C -0.5936 -4.3661 -0.4718
S 0.4647 -4.4209 0.9173
H -0.9439 -3.3334 -0.6689
H -1.4673 -5.0115 -0.2405
H -0.0834 -4.7451 -1.3804
H 5.0430 -2.9746 0.5830
O 4.7679 -2.7167 -0.2304
H 3.8700 -1.9312 0.1625
36
Frame 10
H -3.5781 2.0149 -0.4217
C -2.8903 2.8277 -0.6855
C -1.1427 4.8833 -1.3528
C -1.5185 2.6676 -0.4618
C -3.3812 4.0073 -1.2398
C -2.5085 5.0378 -1.5745
C -0.6472 3.7035 -0.7996
C -1.0300 1.3810 0.1180
H -4.4583 4.1254 -1.4135
H -2.8968 5.9676 -2.0116
H 0.4309 3.5740 -0.6218
H -0.4520 5.6930 -1.6159
H -1.1531 0.5508 -0.6263
H -1.6196 1.1190 1.0335
O 0.3457 1.4986 0.4476
C 0.8250 0.4257 1.2550
H 1.9102 0.6701 1.4074
C 0.7186 -0.9404 0.5876
H 0.2777 0.4227 2.2297
C 1.7035 -1.9278 1.2951
H 0.9749 -0.8445 -0.4987
O -0.6341 -1.3687 0.6323
H 1.2447 -2.1429 2.3137
C 1.7426 -3.2575 0.5179
O 2.9287 -1.3934 1.4144
H 1.7084 -3.0689 -0.5777
H 2.7168 -3.7574 0.7476
H -0.6824 -2.1217 1.2330
C -0.5800 -4.4309 -0.4178
S 0.4752 -4.4213 0.9792
H -0.9442 -3.4087 -0.6537
H -1.4455 -5.0809 -0.1661
H -0.0621 -4.8362 -1.3121
H 5.0766 -3.0048 0.4162
O 4.7200 -2.6829 -0.3624
H 3.8249 -1.8811 0.1851
36
Frame 11
H -3.5733 2.0025 -0.4987
C -2.8830 2.8272 -0.7290
C -1.1293 4.9131 -1.3114
C -1.5140 2.6747 -0.4730
C -3.3681 4.0143 -1.2732
C -2.4923 5.0600 -1.5653
C -0.6396 3.7258 -0.7683
C -1.0311 1.3798 0.0939
H -4.4430 4.1264 -1.4725
H -2.8760 5.9957 -1.9945
H 0.4363 3.6023 -0.5651
H -0.4361 5.7348 -1.5410
H -1.1214 0.5634 -0.6764
H -1.6496 1.0894 0.9872
O 0.3360 1.5080 0.4708
C 0.8002 0.4267 1.2762
H 1.8810 0.6793 1.4645
C 0.7241 -0.9316 0.5822
H 0.2229 0.4037 2.2371
C 1.6951 -1.9192 1.3076
H 1.0161 -0.8182 -0.4970
O -0.6296 -1.3750 0.5746
H 1.2278 -2.1221 2.3248
C 1.7382 -3.2537 0.5418
O 2.9229 -1.3852 1.4383
H 1.6825 -3.0757 -0.5561
H 2.7233 -3.7406 0.7580
H -0.6928 -2.1115 1.1982
C -0.5664 -4.4957 -0.3638
S 0.4858 -4.4218 1.0411
H -0.9445 -3.4839 -0.6385
H -1.4237 -5.1503 -0.0918
H -0.0407 -4.9273 -1.2438
H 5.1103 -3.0350 0.2495
O 4.6721 -2.6492 -0.4944
H 3.7797 -1.8310 0.2078
36
Frame 12
H -3.5725 2.0181 -0.4434
C -2.8800 2.8278 -0.7015
C -1.1210 4.8757 -1.3543
C -1.5105 2.6624 -0.4674
C -3.3630 4.0088 -1.2591
C -2.4846 5.0355 -1.5864
C -0.6334 3.6944 -0.7980
C -1.0302 1.3741 0.1147
H -4.4384 4.1311 -1.4411
H -2.8666 5.9664 -2.0261
H 0.4429 3.5607 -0.6119
H -0.4257 5.6824 -1.6117
H -1.1407 0.5472 -0.6371
H -1.6349 1.1065 1.0206
O 0.3422 1.4929 0.4671
C 0.8103 0.4211 1.2819
H 1.8942 0.6672 1.4518
C 0.7155 -0.9448 0.6108
H 0.2471 0.4165 2.2489
C 1.6851 -1.9313 1.3384
H 0.9947 -0.8496 -0.4718
O -0.6407 -1.3718 0.6299
H 1.2154 -2.1375 2.3533
C 1.7391 -3.2637 0.5704
O 2.9125 -1.3958 1.4760
H 1.7313 -3.0803 -0.5200
H 2.7012 -3.7647 0.8201
H -0.7025 -2.1298 1.2138
C -0.5455 -4.4429 -0.4169
S 0.4668 -4.4194 1.0065
H -0.9155 -3.4245 -0.6671
H -1.4071 -5.0967 -0.1888
H 0.0019 -4.8492 -1.2904
H 5.0547 -3.0046 0.1816
O 4.6083 -2.5862 -0.5254
H 3.7495 -1.7960 0.2324
36
Frame 13
H -3.5716 2.0337 -0.3881
C -2.8771 2.8284 -0.6741
C -1.1127 4.8383 -1.3972
C -1.5070 2.6500 -0.4618
C -3.3580 4.0033 -1.2450
C -2.4768 5.0110 -1.6075
C -0.6272 3.6630 -0.8277
C -1.0293 1.3684 0.1355
H -4.4338 4.1358 -1.4097
H -2.8572 5.9371 -2.0577
H 0.4496 3.5191 -0.6587
H -0.4152 5.6300 -1.6824
H -1.1599 0.5310 -0.5979
H -1.6202 1.1237 1.0539
O 0.3484 1.4779 0.4634
C 0.8203 0.4156 1.2875
H 1.9073 0.6552 1.4391
C 0.7068 -0.9580 0.6394
H 0.2713 0.4294 2.2608
C 1.6752 -1.9435 1.3692
H 0.9733 -0.8810 -0.4466
O -0.6519 -1.3686 0.6853
H 1.2029 -2.1530 2.3818
C 1.7400 -3.2737 0.5990
O 2.9021 -1.4065 1.5137
H 1.7800 -3.0849 -0.4839
H 2.6791 -3.7888 0.8822
H -0.7122 -2.1481 1.2294
C -0.5247 -4.3901 -0.4699
S 0.4477 -4.4169 0.9719
H -0.8864 -3.3651 -0.6958
H -1.3905 -5.0432 -0.2857
H 0.0445 -4.7712 -1.3369
H 4.9990 -2.9742 0.1137
O 4.5445 -2.5232 -0.5563
H 3.7192 -1.7610 0.2570
36
Frame 14
H -3.5708 2.0493 -0.3329
C -2.8741 2.8290 -0.6466
C -1.1043 4.8009 -1.4402
C -1.5035 2.6377 -0.4562
C -3.3529 3.9978 -1.2309
C -2.4691 4.9865 -1.6286
C -0.6210 3.6316 -0.8574
C -1.0283 1.3628 0.1562
H -4.4292 4.1404 -1.3783
H -2.8478 5.9078 -2.0892
H 0.4562 3.4776 -0.7056
H -0.4048 5.5777 -1.7530
H -1.1792 0.5148 -0.5586
H -1.6054 1.1408 1.0873
O 0.3547 1.4628 0.4597
C 0.8304 0.4100 1.2932
H 1.9205 0.6431 1.4265
C 0.6982 -0.9711 0.6681
H 0.2955 0.4422 2.2726
C 1.6652 -1.9556 1.4000
H 0.9518 -0.9123 -0.4214
O -0.6630 -1.3655 0.7406
H 1.1905 -2.1684 2.4103
C 1.7409 -3.2837 0.6276
O 2.8917 -1.4171 1.5514
H 1.8288 -3.0894 -0.4478
H 2.6571 -3.8129 0.9442
H -0.7219 -2.1663 1.2449
C -0.5038 -4.3372 -0.5230
S 0.4287 -4.4145 0.9373
H -0.8574 -3.3057 -0.7244
H -1.3739 -4.9896 -0.3827
H 0.0871 -4.6931 -1.3835
H 4.9434 -2.9438 0.0457
O 4.4806 -2.4602 -0.5873
H 3.6890 -1.7261 0.2817
36
Frame 15
H -3.5699 2.0649 -0.2776
C -2.8711 2.8296 -0.6191
C -1.0960 4.7635 -1.4831
C -1.5000 2.6254 -0.4506
C -3.3479 3.9923 -1.2168
C -2.4613 4.9620 -1.6497
C -0.6148 3.6002 -0.8871
C -1.0274 1.3571 0.1770
H -4.4246 4.1451 -1.3469
H -2.8384 5.8785 -2.1208
H 0.4629 3.4360 -0.7524
H -0.3944 5.5253 -1.8237
H -1.1984 0.4986 -0.5193
H -1.5907 1.1579 1.1207
O 0.3609 1.4478 0.4560
C 0.8405 0.4045 1.2989
H 1.9336 0.6310 1.4138
C 0.6896 -0.9843 0.6967
H 0.3197 0.4551 2.2844
C 1.6553 -1.9678 1.4308
H 0.9304 -0.9437 -0.3962
O -0.6741 -1.3623 0.7959
H 1.1780 -2.1838 2.4388
C 1.7418 -3.2937 0.6562
O 2.8813 -1.4278 1.5891
H 1.8776 -3.0940 -0.4117
H 2.6350 -3.8370 1.0063
H -0.7316 -2.1846 1.2605
C -0.4830 -4.2844 -0.5761
S 0.4097 -4.4120 0.9027
H -0.8284 -3.2463 -0.7531
H -1.3573 -4.9360 -0.4796
H 0.1297 -4.6150 -1.4301
H 4.8877 -2.9134 -0.0222
O 4.4168 -2.3972 -0.6183
H 3.6588 -1.6911 0.3063
36
Frame 16
H -3.5691 2.0805 -0.2223
C -2.8682 2.8301 -0.5917
C -1.0877 4.7261 -1.5260
C -1.4966 2.6130 -0.4449
C -3.3428 3.9867 -1.2026
C -2.4536 4.9374 -1.6708
C -0.6086 3.5688 -0.9168
C -1.0265 1.3514 0.1978
H -4.4201 4.1498 -1.3156
H -2.8290 5.8493 -2.1524
H 0.4695 3.3944 -0.7992
H -0.3839 5.4729 -1.8944
H -1.2177 0.4825 -0.4801
H -1.5760 1.1751 1.1540
O 0.3671 1.4327 0.4523
C 0.8505 0.3989 1.3045
H 1.9468 0.6190 1.4011
C 0.6809 -0.9975 0.7253
H 0.3438 0.4679 2.2963
C 1.6453 -1.9799 1.4617
H 0.9090 -0.9751 -0.3710
O -0.6853 -1.3591 0.8513
H 1.1656 -2.1993 2.4674
C 1.7426 -3.3038 0.6849
O 2.8710 -1.4384 1.6269
H 1.9263 -3.0986 -0.3756
H 2.6129 -3.8611 1.0684
H -0.7412 -2.2029 1.2761
C -0.4621 -4.2316 -0.6291
S 0.3906 -4.4096 0.8680
H -0.7993 -3.1870 -0.7817
H -1.3406 -4.8825 -0.5766
H 0.1724 -4.5370 -1.4766
H 4.8321 -2.8831 -0.0901
O 4.3530 -2.3343 -0.6492
H 3.6285 -1.6561 0.3309
36
Frame 17
H -3.5682 2.0961 -0.1670
C -2.8652 2.8307 -0.5642
C -1.0794 4.6887 -1.5689
C -1.4931 2.6007 -0.4393
C -3.3378 3.9812 -1.1885
C -2.4458 4.9129 -1.6919
C -0.6024 3.5374 -0.9465
C -1.0256 1.3457 0.2186
H -4.4155 4.1545 -1.2842
H -2.8196 5.8200 -2.1840
H 0.4762 3.3528 -0.8460
H -0.3735 5.4205 -1.9651
H -1.2369 0.4663 -0.4408
H -1.5613 1.1922 1.1874
O 0.3733 1.4177 0.4486
C 0.8606 0.3934 1.3102
H 1.9599 0.6069 1.3884
C 0.6723 -1.0107 0.7539
H 0.3680 0.4808 2.3081
C 1.6354 -1.9921 1.4925
H 0.8876 -1.0065 -0.3458
O -0.6964 -1.3559 0.9066
H 1.1531 -2.2147 2.4959
C 1.7435 -3.3138 0.7135
O 2.8606 -1.4491 1.6646
H 1.9751 -3.1032 -0.3395
H 2.5908 -3.8852 1.1305
H -0.7509 -2.2212 1.2917
C -0.4413 -4.1788 -0.6822
S 0.3716 -4.4071 0.8334
H -0.7703 -3.1276 -0.8104
H -1.3240 -4.8289 -0.6735
H 0.2150 -4.4589 -1.5232
H 4.7764 -2.8527 -0.1580
O 4.2892 -2.2713 -0.6802
H 3.5983 -1.6211 0.3555
36
Frame 18
H -3.5676 2.1078 -0.1256
C -2.8630 2.8312 -0.5436
C -1.0731 4.6607 -1.6011
C -1.4905 2.5915 -0.4351
C -3.3340 3.9771 -1.1779
C -2.4400 4.8945 -1.7077
C -0.5978 3.5139 -0.9688
C -1.0249 1.3415 0.2342
H -4.4120 4.1580 -1.2606
H -2.8126 5.7980 -2.2076
H 0.4812 3.3217 -0.8812
H -0.3657 5.3813 -2.0181
H -1.2514 0.4541 -0.4114
H -1.5502 1.2050 1.2124
O 0.3780 1.4064 0.4458
C 0.8681 0.3892 1.3145
H 1.9698 0.5979 1.3789
C 0.6658 -1.0206 0.7754
H 0.3862 0.4904 2.3170
C 1.6279 -2.0012 1.5156
H 0.8715 -1.0300 -0.3269
O -0.7048 -1.3536 0.9481
H 1.1438 -2.2263 2.5173
C 1.7442 -3.3213 0.7349
O 2.8528 -1.4570 1.6928
H 2.0117 -3.1066 -0.3124
H 2.5743 -3.9033 1.1770
H -0.7582 -2.2349 1.3034
C -0.4256 -4.1391 -0.7220
S 0.3573 -4.4053 0.8075
H -0.7485 -3.0830 -0.8318
H -1.3116 -4.7887 -0.7462
H 0.2469 -4.4004 -1.5581
H 4.7347 -2.8299 -0.2090
O 4.2413 -2.2240 -0.7034
H 3.5756 -1.5949 0.3740
36
Frame 19
H -3.5670 2.1195 -0.0841
C -2.8608 2.8316 -0.5230
C -1.0669 4.6326 -1.6333
C -1.4878 2.5822 -0.4309
C -3.3302 3.9730 -1.1674
C -2.4342 4.8762 -1.7236
C -0.5931 3.4903 -0.9910
C -1.0242 1.3372 0.2497
H -4.4086 4.1615 -1.2371
H -2.8055 5.7760 -2.2313
H 0.4861 3.2905 -0.9163
H -0.3579 5.3420 -2.0711
H -1.2658 0.4420 -0.3819
H -1.5392 1.2179 1.2375
O 0.3827 1.3951 0.4430
C 0.8757 0.3850 1.3187
H 1.9797 0.5888 1.3694
C 0.6594 -1.0304 0.7969
H 0.4043 0.5000 2.3259
C 1.6204 -2.0103 1.5387
H 0.8554 -1.0535 -0.3080
O -0.7131 -1.3512 0.9896
H 1.1345 -2.2378 2.5386
C 1.7449 -3.3288 0.7564
O 2.8450 -1.4650 1.7211
H 2.0483 -3.1100 -0.2854
H 2.5577 -3.9214 1.2236
H -0.7655 -2.2486 1.3150
C -0.4100 -4.0995 -0.7618
S 0.3431 -4.4035 0.7815
H -0.7267 -3.0385 -0.8533
H -1.2991 -4.7486 -0.8190
H 0.2789 -4.3418 -1.5930
H 4.6930 -2.8071 -0.2599
O 4.1934 -2.1768 -0.7266
H 3.5530 -1.5687 0.3925
36
Frame 20
H -3.5663 2.1312 -0.0427
C -2.8585 2.8321 -0.5024
C -1.0606 4.6046 -1.6655
C -1.4852 2.5729 -0.4267
C -3.3264 3.9688 -1.1568
C -2.4284 4.8578 -1.7394
C -0.5885 3.4668 -1.0133
C -1.0235 1.3330 0.2653
H -4.4051 4.1650 -1.2135
H -2.7984 5.7541 -2.2550
H 0.4911 3.2593 -0.9514
H -0.3500 5.3027 -2.1241
H -1.2803 0.4298 -0.3525
H -1.5281 1.2308 1.2625
O 0.3873 1.3838 0.4403
C 0.8832 0.3809 1.3230
H 1.9895 0.5798 1.3599
C 0.6529 -1.0403 0.8183
H 0.4225 0.5097 2.3347
C 1.6130 -2.0194 1.5618
H 0.8394 -1.0771 -0.2891
O -0.7215 -1.3488 1.0311
H 1.1251 -2.2494 2.5600
C 1.7455 -3.3363 0.7778
O 2.8372 -1.4730 1.7494
H 2.0848 -3.1135 -0.2583
H 2.5412 -3.9394 1.2701
H -0.7727 -2.2623 1.3267
C -0.3943 -4.0599 -0.8016
S 0.3288 -4.4016 0.7556
H -0.7050 -2.9939 -0.8748
H -1.2867 -4.7084 -0.8917
H 0.3108 -4.2833 -1.6280
H 4.6512 -2.7843 -0.3109
O 4.1456 -2.1295 -0.7499
H 3.5303 -1.5424 0.4109
36
Frame 21
H -3.5657 2.1429 -0.0012
C -2.8563 2.8325 -0.4818
C -1.0544 4.5765 -1.6977
C -1.4826 2.5637 -0.4225
C -3.3226 3.9647 -1.1462
C -2.4226 4.8394 -1.7552
C -0.5838 3.4432 -1.0356
C -1.0228 1.3287 0.2809
H -4.4017 4.1685 -1.1900
H -2.7914 5.7321 -2.2787
H 0.4961 3.2281 -0.9865
H -0.3422 5.2634 -2.1771
H -1.2947 0.4177 -0.3230
H -1.5171 1.2436 1.2875
O 0.3920 1.3725 0.4375
C 0.8908 0.3767 1.3272
H 1.9994 0.5707 1.3504
C 0.6464 -1.0502 0.8398
H 0.4406 0.5193 2.3436
C 1.6055 -2.0285 1.5849
H 0.8233 -1.1006 -0.2702
O -0.7298 -1.3464 1.0726
H 1.1158 -2.2610 2.5814
C 1.7462 -3.3438 0.7993
O 2.8294 -1.4810 1.7777
H 2.1214 -3.1169 -0.2312
H 2.5246 -3.9575 1.3167
H -0.7800 -2.2760 1.3384
C -0.3787 -4.0203 -0.8414
S 0.3145 -4.3998 0.7296
H -0.6832 -2.9494 -0.8963
H -1.2742 -4.6682 -0.9644
H 0.3428 -4.2247 -1.6629
H 4.6095 -2.7615 -0.3618
O 4.0977 -2.0823 -0.7731
H 3.5076 -1.5162 0.4294
36
Frame 22
H -3.5637 2.1449 0.0020
C -2.8561 2.8361 -0.4789
C -1.0587 4.5849 -1.6946
C -1.4825 2.5648 -0.4295
C -3.3245 3.9731 -1.1336
C -2.4268 4.8500 -1.7426
C -0.5860 3.4469 -1.0424
C -1.0199 1.3244 0.2623
H -4.4036 4.1786 -1.1698
H -2.7974 5.7464 -2.2585
H 0.4938 3.2299 -1.0007
H -0.3483 5.2738 -2.1738
H -1.2842 0.4190 -0.3533
H -1.5181 1.2250 1.2655
O 0.3942 1.3730 0.4247
C 0.8929 0.3807 1.3180
H 2.0013 0.5753 1.3409
C 0.6487 -1.0485 0.8363
H 0.4421 0.5269 2.3337
C 1.5993 -2.0245 1.5925
H 0.8335 -1.1059 -0.2721
O -0.7297 -1.3391 1.0633
H 1.1107 -2.2420 2.5920
C 1.7405 -3.3472 0.8223
O 2.8277 -1.4774 1.7838
H 2.1313 -3.1308 -0.2060
H 2.5092 -3.9611 1.3539
H -0.7858 -2.2714 1.3184
C -0.3590 -4.0302 -0.8446
S 0.3027 -4.3935 0.7435
H -0.6676 -2.9615 -0.9140
H -1.2480 -4.6841 -0.9816
H 0.3811 -4.2362 -1.6486
H 4.6037 -2.7631 -0.3867
O 4.0527 -2.1080 -0.7824
H 3.4946 -1.5290 0.4611
36
Frame 23
H -3.5617 2.1470 0.0051
C -2.8559 2.8398 -0.4759
C -1.0631 4.5932 -1.6915
C -1.4824 2.5660 -0.4365
C -3.3265 3.9814 -1.1210
C -2.4311 4.8607 -1.7299
C -0.5882 3.4505 -1.0492
C -1.0170 1.3201 0.2436
H -4.4054 4.1888 -1.1496
H -2.8034 5.7607 -2.2383
H 0.4916 3.2318 -1.0149
H -0.3545 5.2841 -2.1705
H -1.2737 0.4204 -0.3835
H -1.5191 1.2063 1.2434
O 0.3964 1.3736 0.4118
C 0.8950 0.3847 1.3087
H 2.0033 0.5799 1.3314
C 0.6510 -1.0468 0.8327
H 0.4436 0.5345 2.3238
C 1.5932 -2.0204 1.6000
H 0.8438 -1.1113 -0.2740
O -0.7295 -1.3318 1.0540
H 1.1055 -2.2230 2.6026
C 1.7348 -3.3506 0.8453
O 2.8259 -1.4739 1.7900
H 2.1412 -3.1448 -0.1809
H 2.4937 -3.9648 1.3910
H -0.7916 -2.2668 1.2984
C -0.3394 -4.0401 -0.8478
S 0.2910 -4.3872 0.7573
H -0.6521 -2.9737 -0.9318
H -1.2219 -4.6999 -0.9988
H 0.4194 -4.2478 -1.6344
H 4.5979 -2.7648 -0.4116
O 4.0077 -2.1337 -0.7916
H 3.4817 -1.5418 0.4927
36
Frame 24
H -3.5533 2.1719 0.0404
C -2.8486 2.8525 -0.4569
C -1.0587 4.5752 -1.7137
C -1.4796 2.5625 -0.4376
C -3.3163 3.9949 -1.1026
C -2.4224 4.8589 -1.7320
C -0.5868 3.4316 -1.0709
C -1.0166 1.3156 0.2424
H -4.3918 4.2151 -1.1154
H -2.7924 5.7596 -2.2408
H 0.4896 3.1999 -1.0520
H -0.3513 5.2540 -2.2089
H -1.2727 0.4168 -0.3862
H -1.5197 1.2010 1.2415
O 0.3968 1.3685 0.4119
C 0.8948 0.3815 1.3107
H 2.0030 0.5769 1.3325
C 0.6504 -1.0514 0.8385
H 0.4436 0.5340 2.3255
C 1.5814 -2.0249 1.6160
H 0.8540 -1.1226 -0.2657
O -0.7320 -1.3304 1.0542
H 1.0951 -2.2156 2.6202
C 1.7268 -3.3589 0.8721
O 2.8196 -1.4791 1.8093
H 2.1569 -3.1550 -0.1466
H 2.4686 -3.9768 1.4333
H -0.8018 -2.2692 1.2672
C -0.3031 -4.0408 -0.8669
S 0.2806 -4.3836 0.7528
H -0.6381 -2.9838 -0.9584
H -1.1585 -4.7193 -1.0479
H 0.4824 -4.2221 -1.6252
H 4.5387 -2.6994 -0.4830
O 3.9089 -2.1066 -0.8018
H 3.4526 -1.5307 0.5441
36
Frame 25
H -3.5449 2.1969 0.0757
C -2.8413 2.8652 -0.4378
C -1.0543 4.5572 -1.7358
C -1.4768 2.5590 -0.4387
C -3.3062 4.0084 -1.0843
C -2.4137 4.8570 -1.7341
C -0.5854 3.4126 -1.0926
C -1.0161 1.3111 0.2411
H -4.3782 4.2415 -1.0812
H -2.7814 5.7584 -2.2433
H 0.4875 3.1681 -1.0892
H -0.3481 5.2238 -2.2473
H -1.2718 0.4131 -0.3888
H -1.5203 1.1957 1.2395
O 0.3972 1.3635 0.4119
C 0.8946 0.3784 1.3127
H 2.0027 0.5740 1.3335
C 0.6499 -1.0560 0.8444
H 0.4436 0.5335 2.3273
C 1.5696 -2.0294 1.6320
H 0.8642 -1.1339 -0.2574
O -0.7345 -1.3289 1.0543
H 1.0847 -2.2083 2.6379
C 1.7187 -3.3672 0.8989
O 2.8132 -1.4844 1.8287
H 2.1726 -3.1652 -0.1123
H 2.4436 -3.9887 1.4755
H -0.8121 -2.2716 1.2359
C -0.2668 -4.0415 -0.8859
S 0.2703 -4.3801 0.7483
H -0.6240 -2.9939 -0.9850
H -1.0951 -4.7386 -1.0971
H 0.5454 -4.1965 -1.6159
H 4.4795 -2.6339 -0.5545
O 3.8101 -2.0795 -0.8120
H 3.4234 -1.5196 0.5955
36
Frame 26
H -3.5365 2.2218 0.1110
C -2.8340 2.8779 -0.4188
C -1.0499 4.5392 -1.7580
C -1.4740 2.5555 -0.4398
C -3.2960 4.0219 -1.0659
C -2.4050 4.8552 -1.7362
C -0.5840 3.3937 -1.1143
C -1.0157 1.3066 0.2399
H -4.3646 4.2678 -1.0470
H -2.7704 5.7573 -2.2458
H 0.4855 3.1362 -1.1263
H -0.3449 5.1937 -2.2857
H -1.2708 0.4095 -0.3915
H -1.5209 1.1904 1.2376
O 0.3976 1.3584 0.4120
C 0.8944 0.3752 1.3147
H 2.0024 0.5710 1.3346
C 0.6493 -1.0606 0.8502
H 0.4436 0.5330 2.3290
C 1.5578 -2.0339 1.6480
H 0.8744 -1.1452 -0.2491
O -0.7370 -1.3275 1.0545
H 1.0743 -2.2009 2.6555
C 1.7107 -3.3755 0.9257
O 2.8069 -1.4896 1.8480
H 2.1883 -3.1754 -0.0780
H 2.4185 -4.0007 1.5178
H -0.8223 -2.2740 1.2047
C -0.2305 -4.0422 -0.9050
S 0.2599 -4.3765 0.7438
H -0.6100 -3.0040 -1.0116
H -1.0317 -4.7580 -1.1462
H 0.6084 -4.1708 -1.6067
H 4.4203 -2.5685 -0.6259
O 3.7113 -2.0524 -0.8222
H 3.3943 -1.5085 0.6469
36
Frame 27
H -3.5280 2.2468 0.1464
C -2.8266 2.8905 -0.3998
C -1.0455 4.5211 -1.7802
C -1.4712 2.5519 -0.4408
C -3.2858 4.0355 -1.0475
C -2.3963 4.8533 -1.7384
C -0.5825 3.3747 -1.1361
C -1.0153 1.3022 0.2387
H -4.3510 4.2942 -1.0127
H -2.7595 5.7562 -2.2482
H 0.4834 3.1044 -1.1635
H -0.3416 5.1635 -2.3240
H -1.2699 0.4059 -0.3941
H -1.5214 1.1850 1.2357
O 0.3981 1.3533 0.4120
C 0.8943 0.3721 1.3166
H 2.0021 0.5681 1.3356
C 0.6488 -1.0651 0.8560
H 0.4436 0.5325 2.3307
C 1.5461 -2.0385 1.6639
H 0.8847 -1.1564 -0.2408
O -0.7394 -1.3260 1.0547
H 1.0639 -2.1936 2.6732
C 1.7027 -3.3837 0.9526
O 2.8005 -1.4949 1.8673
H 2.2039 -3.1855 -0.0437
H 2.3935 -4.0126 1.5601
H -0.8325 -2.2764 1.1735
C -0.1941 -4.0429 -0.9240
S 0.2496 -4.3729 0.7393
H -0.5960 -3.0140 -1.0383
H -0.9682 -4.7773 -1.1954
H 0.6713 -4.1452 -1.5974
H 4.3612 -2.5030 -0.6973
O 3.6124 -2.0254 -0.8323
H 3.3651 -1.4974 0.6983
36
Frame 28
H -3.5196 2.2717 0.1817
C -2.8193 2.9032 -0.3808
C -1.0411 4.5031 -1.8024
C -1.4684 2.5484 -0.4419
C -3.2756 4.0490 -1.0291
C -2.3876 4.8515 -1.7405
C -0.5811 3.3558 -1.1578
C -1.0149 1.2977 0.2375
H -4.3374 4.3205 -0.9785
H -2.7485 5.7551 -2.2507
H 0.4814 3.0725 -1.2006
H -0.3384 5.1334 -2.3624
H -1.2689 0.4023 -0.3968
H -1.5220 1.1797 1.2338
O 0.3985 1.3482 0.4121
C 0.8941 0.3689 1.3186
H 2.0018 0.5651 1.3367
C 0.6482 -1.0697 0.8618
H 0.4436 0.5320 2.3324
C 1.5343 -2.0430 1.6799
H 0.8949 -1.1677 -0.2325
O -0.7419 -1.3246 1.0549
H 1.0535 -2.1862 2.6908
C 1.6947 -3.3920 0.9794
O 2.7942 -1.5001 1.8866
H 2.2196 -3.1957 -0.0094
H 2.3684 -4.0246 1.6024
H -0.8427 -2.2788 1.1423
C -0.1578 -4.0436 -0.9431
S 0.2392 -4.3693 0.7348
H -0.5820 -3.0241 -1.0649
H -0.9048 -4.7967 -1.2445
H 0.7343 -4.1195 -1.5882
H 4.3020 -2.4376 -0.7687
O 3.5136 -1.9983 -0.8425
H 3.3360 -1.4863 0.7497
36
Frame 29
H -3.5112 2.2967 0.2170
C -2.8120 2.9159 -0.3617
C -1.0367 4.4851 -1.8245
C -1.4656 2.5449 -0.4430
C -3.2655 4.0625 -1.0108
C -2.3789 4.8496 -1.7426
C -0.5797 3.3368 -1.1795
C -1.0144 1.2932 0.2362
H -4.3238 4.3469 -0.9443
H -2.7375 5.7539 -2.2532
H 0.4793 3.0407 -1.2378
H -0.3352 5.1032 -2.4008
H -1.2680 0.3986 -0.3994
H -1.5226 1.1744 1.2318
O 0.3989 1.3432 0.4121
C 0.8939 0.3658 1.3206
H 2.0015 0.5622 1.3377
C 0.6477 -1.0743 0.8677
H 0.4436 0.5315 2.3342
C 1.5225 -2.0475 1.6959
H 0.9051 -1.1790 -0.2242
O -0.7444 -1.3231 1.0550
H 1.0431 -2.1789 2.7085
C 1.6866 -3.4003 1.0062
O 2.7878 -1.5054 1.9060
H 2.2353 -3.2059 0.0249
H 2.3434 -4.0365 1.6446
H -0.8530 -2.2812 1.1110
C -0.1215 -4.0443 -0.9621
S 0.2289 -4.3658 0.7303
H -0.5679 -3.0342 -1.0915
H -0.8414 -4.8160 -1.2937
H 0.7973 -4.0939 -1.5789
H 4.2428 -2.3721 -0.8402
O 3.4148 -1.9712 -0.8527
H 3.3068 -1.4752 0.8011
36
Frame 30
H -3.5028 2.3216 0.2523
C -2.8047 2.9286 -0.3427
C -1.0323 4.4671 -1.8467
C -1.4628 2.5414 -0.4441
C -3.2553 4.0760 -0.9924
C -2.3702 4.8478 -1.7447
C -0.5783 3.3179 -1.2012
C -1.0140 1.2887 0.2350
H -4.3102 4.3732 -0.9101
H -2.7265 5.7528 -2.2557
H 0.4773 3.0088 -1.2749
H -0.3320 5.0731 -2.4392
H -1.2670 0.3950 -0.4021
H -1.5232 1.1691 1.2299
O 0.3993 1.3381 0.4122
C 0.8937 0.3626 1.3226
H 2.0012 0.5592 1.3388
C 0.6471 -1.0789 0.8735
H 0.4436 0.5310 2.3359
C 1.5107 -2.0520 1.7119
H 0.9153 -1.1903 -0.2159
O -0.7469 -1.3217 1.0552
H 1.0327 -2.1715 2.7261
C 1.6786 -3.4086 1.0330
O 2.7815 -1.5106 1.9253
H 2.2510 -3.2161 0.0592
H 2.3183 -4.0485 1.6869
H -0.8632 -2.2836 1.0798
C -0.0852 -4.0450 -0.9812
S 0.2185 -4.3622 0.7258
H -0.5539 -3.0443 -1.1181
H -0.7780 -4.8354 -1.3428
H 0.8603 -4.0682 -1.5697
H 4.1836 -2.3067 -0.9116
O 3.3160 -1.9441 -0.8629
H 3.2777 -1.4641 0.8525
36
Frame 31
H -3.4984 2.3274 0.2676
C -2.8026 2.9306 -0.3337
C -1.0362 4.4590 -1.8540
C -1.4621 2.5403 -0.4408
C -3.2548 4.0760 -0.9858
C -2.3726 4.8427 -1.7463
C -0.5807 3.3117 -1.2061
C -1.0121 1.2898 0.2414
H -4.3086 4.3755 -0.8991
H -2.7302 5.7461 -2.2592
H 0.4738 3.0002 -1.2845
H -0.3383 5.0609 -2.4530
H -1.2746 0.3937 -0.3875
H -1.5122 1.1783 1.2413
O 0.4025 1.3337 0.4052
C 0.9012 0.3624 1.3177
H 2.0092 0.5529 1.3210
C 0.6425 -1.0806 0.8830
H 0.4628 0.5411 2.3335
C 1.5088 -2.0515 1.7206
H 0.8994 -1.2027 -0.2073
O -0.7494 -1.3135 1.0832
H 1.0443 -2.1547 2.7412
C 1.6607 -3.4177 1.0605
O 2.7855 -1.5171 1.9124
H 2.2624 -3.2519 0.1084
H 2.2560 -4.0629 1.7371
H -0.8777 -2.2714 1.0825
C -0.0418 -4.0171 -1.0052
S 0.2002 -4.3412 0.7030
H -0.5588 -3.0631 -1.1664
H -0.6470 -4.8274 -1.3934
H 0.9064 -3.9665 -1.5432
H 4.1200 -2.3281 -0.9597
O 3.2576 -1.9745 -0.8744
H 3.2646 -1.4804 0.8400
36
Frame 32
H -3.4939 2.3333 0.2828
C -2.8005 2.9325 -0.3248
C -1.0401 4.4508 -1.8613
C -1.4615 2.5392 -0.4376
C -3.2543 4.0759 -0.9793
C -2.3751 4.8376 -1.7479
C -0.5830 3.3056 -1.2110
C -1.0102 1.2909 0.2478
H -4.3069 4.3778 -0.8880
H -2.7339 5.7394 -2.2628
H 0.4702 2.9916 -1.2941
H -0.3446 5.0487 -2.4669
H -1.2822 0.3924 -0.3729
H -1.5013 1.1876 1.2526
O 0.4056 1.3293 0.3982
C 0.9086 0.3623 1.3127
H 2.0171 0.5466 1.3031
C 0.6379 -1.0823 0.8926
H 0.4821 0.5512 2.3312
C 1.5069 -2.0509 1.7294
H 0.8835 -1.2152 -0.1987
O -0.7519 -1.3053 1.1112
H 1.0559 -2.1379 2.7563
C 1.6428 -3.4268 1.0881
O 2.7896 -1.5235 1.8994
H 2.2738 -3.2876 0.1576
H 2.1937 -4.0772 1.7873
H -0.8921 -2.2593 1.0852
C 0.0016 -3.9892 -1.0293
S 0.1820 -4.3202 0.6802
H -0.5638 -3.0820 -1.2146
H -0.5160 -4.8195 -1.4440
H 0.9525 -3.8649 -1.5167
H 4.0564 -2.3494 -1.0078
O 3.1992 -2.0048 -0.8859
H 3.2516 -1.4966 0.8275
36
Frame 33
H -3.4895 2.3391 0.2981
C -2.7985 2.9345 -0.3158
C -1.0440 4.4427 -1.8686
C -1.4608 2.5381 -0.4343
C -3.2537 4.0759 -0.9727
C -2.3775 4.8325 -1.7495
C -0.5854 3.2994 -1.2159
C -1.0083 1.2920 0.2542
H -4.3053 4.3801 -0.8770
H -2.7376 5.7327 -2.2663
H 0.4667 2.9830 -1.3037
H -0.3509 5.0365 -2.4807
H -1.2898 0.3910 -0.3582
H -1.4903 1.1968 1.2640
O 0.4088 1.3249 0.3912
C 0.9161 0.3621 1.3078
H 2.0251 0.5403 1.2852
C 0.6333 -1.0840 0.9021
H 0.5013 0.5613 2.3288
C 1.5050 -2.0504 1.7381
H 0.8676 -1.2276 -0.1901
O -0.7544 -1.2971 1.1393
H 1.0675 -2.1212 2.7714
C 1.6249 -3.4358 1.1156
O 2.7936 -1.5299 1.8865
H 2.2852 -3.3234 0.2068
H 2.1313 -4.0916 1.8374
H -0.9066 -2.2471 1.0879
C 0.0450 -3.9613 -1.0533
S 0.1637 -4.2992 0.6575
H -0.5687 -3.1009 -1.2629
H -0.3850 -4.8116 -1.4946
H 0.9987 -3.7632 -1.4903
H 3.9929 -2.3708 -1.0559
O 3.1409 -2.0352 -0.8974
H 3.2385 -1.5129 0.8150
36
Frame 34
H -3.4873 2.3420 0.3058
C -2.7974 2.9354 -0.3113
C -1.0460 4.4386 -1.8723
C -1.4605 2.5376 -0.4326
C -3.2535 4.0758 -0.9694
C -2.3788 4.8300 -1.7503
C -0.5866 3.2964 -1.2184
C -1.0073 1.2926 0.2574
H -4.3045 4.3813 -0.8715
H -2.7394 5.7294 -2.2680
H 0.4650 2.9787 -1.3085
H -0.3540 5.0304 -2.4876
H -1.2936 0.3904 -0.3509
H -1.4848 1.2014 1.2697
O 0.4104 1.3227 0.3877
C 0.9199 0.3620 1.3053
H 2.0291 0.5372 1.2763
C 0.6310 -1.0848 0.9069
H 0.5109 0.5664 2.3276
C 1.5040 -2.0501 1.7425
H 0.8597 -1.2339 -0.1858
O -0.7556 -1.2930 1.1533
H 1.0733 -2.1128 2.7789
C 1.6159 -3.4404 1.1294
O 2.7956 -1.5332 1.8800
H 2.2909 -3.3413 0.2314
H 2.1002 -4.0988 1.8625
H -0.9138 -2.2410 1.0893
C 0.0667 -3.9473 -1.0653
S 0.1546 -4.2887 0.6461
H -0.5711 -3.1103 -1.2870
H -0.3195 -4.8076 -1.5199
H 1.0217 -3.7124 -1.4770
H 3.9611 -2.3815 -1.0800
O 3.1117 -2.0504 -0.9031
H 3.2320 -1.5210 0.8088
36
Frame 35
H -3.4851 2.3449 0.3134
C -2.7964 2.9364 -0.3069
C -1.0480 4.4346 -1.8760
C -1.4602 2.5371 -0.4310
C -3.2532 4.0758 -0.9661
C -2.3800 4.8274 -1.7511
C -0.5877 3.2933 -1.2208
C -1.0064 1.2931 0.2607
H -4.3037 4.3824 -0.8660
H -2.7413 5.7260 -2.2698
H 0.4632 2.9745 -1.3133
H -0.3572 5.0243 -2.4946
H -1.2973 0.3897 -0.3436
H -1.4794 1.2061 1.2753
O 0.4120 1.3205 0.3843
C 0.9236 0.3620 1.3029
H 2.0331 0.5340 1.2674
C 0.6287 -1.0856 0.9117
H 0.5206 0.5714 2.3264
C 1.5031 -2.0498 1.7469
H 0.8518 -1.2401 -0.1815
O -0.7569 -1.2889 1.1673
H 1.0791 -2.1044 2.7865
C 1.6069 -3.4449 1.1431
O 2.7977 -1.5364 1.8736
H 2.2966 -3.3591 0.2560
H 2.0690 -4.1060 1.8876
H -0.9211 -2.2349 1.0906
C 0.0884 -3.9334 -1.0773
S 0.1455 -4.2782 0.6347
H -0.5736 -3.1197 -1.3111
H -0.2541 -4.8036 -1.5453
H 1.0448 -3.6616 -1.4638
H 3.9293 -2.3922 -1.1041
O 3.0825 -2.0656 -0.9088
H 3.2255 -1.5292 0.8026
36
Frame 36
H -3.4806 2.3508 0.3287
C -2.7943 2.9384 -0.2979
C -1.0519 4.4264 -1.8833
C -1.4595 2.5360 -0.4277
C -3.2527 4.0757 -0.9596
C -2.3824 4.8224 -1.7527
C -0.5901 3.2871 -1.2258
C -1.0045 1.2942 0.2671
H -4.3020 4.3847 -0.8550
H -2.7449 5.7194 -2.2733
H 0.4597 2.9659 -1.3228
H -0.3635 5.0121 -2.5084
H -1.3049 0.3884 -0.3290
H -1.4684 1.2153 1.2867
O 0.4151 1.3162 0.3773
C 0.9311 0.3618 1.2979
H 2.0411 0.5277 1.2496
C 0.6241 -1.0873 0.9212
H 0.5398 0.5816 2.3240
C 1.5011 -2.0493 1.7556
H 0.8359 -1.2525 -0.1729
O -0.7593 -1.2807 1.1953
H 1.0907 -2.0876 2.8016
C 1.5890 -3.4540 1.1707
O 2.8017 -1.5429 1.8606
H 2.3081 -3.3949 0.3053
H 2.0067 -4.1203 1.9378
H -0.9355 -2.2227 1.0934
C 0.1319 -3.9054 -1.1013
S 0.1272 -4.2572 0.6119
H -0.5785 -3.1385 -1.3594
H -0.1231 -4.7956 -1.5959
H 1.0909 -3.5599 -1.4373
H 3.8657 -2.4135 -1.1522
O 3.0241 -2.0959 -0.9203
H 3.2124 -1.5454 0.7901
36
Frame 37
H -3.4762 2.3566 0.3440
C -2.7923 2.9403 -0.2889
C -1.0558 4.4183 -1.8906
C -1.4588 2.5349 -0.4244
C -3.2522 4.0757 -0.9530
C -2.3849 4.8173 -1.7543
C -0.5925 3.2810 -1.2307
C -1.0026 1.2953 0.2735
H -4.3004 4.3870 -0.8439
H -2.7486 5.7127 -2.2769
H 0.4561 2.9573 -1.3324
H -0.3698 4.9999 -2.5222
H -1.3125 0.3871 -0.3144
H -1.4574 1.2245 1.2981
O 0.4183 1.3118 0.3703
C 0.9385 0.3616 1.2930
H 2.0490 0.5214 1.2317
C 0.6195 -1.0890 0.9307
H 0.5590 0.5917 2.3217
C 1.4992 -2.0488 1.7643
H 0.8200 -1.2650 -0.1643
O -0.7618 -1.2725 1.2234
H 1.1023 -2.0708 2.8167
C 1.5711 -3.4630 1.1982
O 2.8057 -1.5493 1.8477
H 2.3195 -3.4307 0.3545
H 1.9444 -4.1347 1.9880
H -0.9500 -2.2105 1.0961
C 0.1753 -3.8775 -1.1254
S 0.1089 -4.2362 0.5892
H -0.5835 -3.1574 -1.4077
H 0.0079 -4.7877 -1.6465
H 1.1371 -3.4582 -1.4108
H 3.8021 -2.4349 -1.2003
O 2.9657 -2.1263 -0.9318
H 3.1993 -1.5617 0.7776
36
Frame 38
H -3.4732 2.3605 0.3541
C -2.7909 2.9416 -0.2830
C -1.0584 4.4129 -1.8955
C -1.4584 2.5342 -0.4223
C -3.2518 4.0757 -0.9487
C -2.3865 4.8139 -1.7554
C -0.5940 3.2769 -1.2340
C -1.0013 1.2960 0.2778
H -4.2993 4.3885 -0.8366
H -2.7511 5.7082 -2.2792
H 0.4538 2.9516 -1.3388
H -0.3740 4.9918 -2.5315
H -1.3176 0.3862 -0.3046
H -1.4501 1.2307 1.3056
O 0.4204 1.3088 0.3656
C 0.9435 0.3615 1.2897
H 2.0544 0.5172 1.2198
C 0.6164 -1.0901 0.9371
H 0.5719 0.5984 2.3201
C 1.4980 -2.0484 1.7702
H 0.8094 -1.2733 -0.1586
O -0.7635 -1.2670 1.2420
H 1.1100 -2.0597 2.8268
C 1.5592 -3.4691 1.2166
O 2.8084 -1.5536 1.8391
H 2.3271 -3.4545 0.3873
H 1.9028 -4.1443 2.0214
H -0.9596 -2.2024 1.0979
C 0.2042 -3.8589 -1.1414
S 0.0968 -4.2222 0.5740
H -0.5867 -3.1700 -1.4398
H 0.0952 -4.7824 -1.6802
H 1.1678 -3.3905 -1.3932
H 3.7598 -2.4491 -1.2323
O 2.9268 -2.1465 -0.9395
H 3.1906 -1.5725 0.7693
36
Frame 39
H -3.4703 2.3644 0.3643
C -2.7895 2.9429 -0.2770
C -1.0610 4.4074 -1.9003
C -1.4579 2.5334 -0.4201
C -3.2515 4.0756 -0.9443
C -2.3882 4.8105 -1.7564
C -0.5956 3.2728 -1.2372
C -1.0001 1.2968 0.2820
H -4.2982 4.3901 -0.8292
H -2.7535 5.7038 -2.2815
H 0.4514 2.9458 -1.3452
H -0.3782 4.9836 -2.5407
H -1.3226 0.3853 -0.2948
H -1.4428 1.2368 1.3132
O 0.4225 1.3059 0.3610
C 0.9485 0.3614 1.2864
H 2.0597 0.5130 1.2079
C 0.6134 -1.0913 0.9434
H 0.5847 0.6052 2.3185
C 1.4967 -2.0481 1.7760
H 0.7988 -1.2816 -0.1528
O -0.7651 -1.2616 1.2607
H 1.1178 -2.0485 2.8368
C 1.5472 -3.4752 1.2349
O 2.8111 -1.5579 1.8304
H 2.3347 -3.4784 0.4201
H 1.8612 -4.1538 2.0548
H -0.9693 -2.1943 1.0997
C 0.2332 -3.8403 -1.1574
S 0.0846 -4.2082 0.5588
H -0.5900 -3.1825 -1.4720
H 0.1826 -4.7771 -1.7140
H 1.1986 -3.3227 -1.3755
H 3.7174 -2.4634 -1.2644
O 2.8879 -2.1668 -0.9471
H 3.1819 -1.5834 0.7609
36
Frame 40
H -3.4673 2.3683 0.3745
C -2.7881 2.9442 -0.2710
C -1.0636 4.4020 -1.9052
C -1.4575 2.5327 -0.4179
C -3.2511 4.0756 -0.9399
C -2.3898 4.8071 -1.7575
C -0.5972 3.2687 -1.2405
C -0.9988 1.2975 0.2863
H -4.2971 4.3916 -0.8219
H -2.7560 5.6993 -2.2839
H 0.4491 2.9401 -1.3516
H -0.3824 4.9755 -2.5499
H -1.3277 0.3844 -0.2851
H -1.4355 1.2430 1.3208
O 0.4246 1.3030 0.3563
C 0.9535 0.3613 1.2831
H 2.0650 0.5088 1.1960
C 0.6103 -1.0924 0.9498
H 0.5975 0.6119 2.3169
C 1.4954 -2.0477 1.7818
H 0.7882 -1.2899 -0.1471
O -0.7668 -1.2561 1.2794
H 1.1255 -2.0373 2.8469
C 1.5353 -3.4812 1.2533
O 2.8138 -1.5622 1.8218
H 2.3423 -3.5022 0.4529
H 1.8197 -4.1634 2.0883
H -0.9789 -2.1862 1.1015
C 0.2621 -3.8217 -1.1734
S 0.0724 -4.1942 0.5436
H -0.5933 -3.1951 -1.5042
H 0.2699 -4.7718 -1.7477
H 1.2293 -3.2549 -1.3579
H 3.6750 -2.4776 -1.2965
O 2.8490 -2.1870 -0.9548
H 3.1732 -1.5942 0.7526
36
Frame 41
H -3.4618 2.3866 0.3922
C -2.7836 2.9519 -0.2636
C -1.0616 4.3842 -1.9226
C -1.4566 2.5310 -0.4159
C -3.2446 4.0795 -0.9402
C -2.3847 4.7980 -1.7705
C -0.5973 3.2545 -1.2504
C -1.0005 1.2983 0.2944
H -4.2879 4.4030 -0.8180
H -2.7494 5.6870 -2.3034
H 0.4465 2.9191 -1.3647
H -0.3813 4.9481 -2.5767
H -1.3282 0.3834 -0.2748
H -1.4398 1.2476 1.3279
O 0.4227 1.3043 0.3684
C 0.9502 0.3596 1.2927
H 2.0613 0.5100 1.2096
C 0.6105 -1.0932 0.9517
H 0.5905 0.6054 2.3263
C 1.4888 -2.0528 1.7847
H 0.7966 -1.2864 -0.1450
O -0.7681 -1.2596 1.2730
H 1.1170 -2.0468 2.8488
C 1.5369 -3.4815 1.2474
O 2.8105 -1.5637 1.8394
H 2.3430 -3.4886 0.4425
H 1.8280 -4.1685 2.0758
H -0.9790 -2.1888 1.0876
C 0.2720 -3.8163 -1.1819
S 0.0767 -4.1937 0.5329
H -0.5887 -3.1991 -1.5162
H 0.2970 -4.7640 -1.7590
H 1.2350 -3.2349 -1.3582
H 3.6331 -2.4585 -1.3248
O 2.8270 -2.1705 -0.9372
H 3.1698 -1.5845 0.8275
36
Frame 42
H -3.4564 2.4047 0.4079
C -2.7818 2.9687 -0.2526
C -1.0685 4.3983 -1.9230
C -1.4609 2.5370 -0.4257
C -3.2411 4.1059 -0.9140
C -2.3855 4.8232 -1.7497
C -0.6062 3.2589 -1.2662
C -1.0056 1.2951 0.2689
H -4.2796 4.4380 -0.7754
H -2.7486 5.7202 -2.2700
H 0.4328 2.9148 -1.3966
H -0.3915 4.9615 -2.5811
H -1.3304 0.3877 -0.3136
H -1.4473 1.2297 1.3005
O 0.4176 1.3015 0.3454
C 0.9439 0.3600 1.2735
H 2.0548 0.5157 1.1963
C 0.6131 -1.0949 0.9318
H 0.5777 0.6050 2.3051
C 1.4769 -2.0482 1.7859
H 0.8212 -1.2931 -0.1605
O -0.7705 -1.2632 1.2296
H 1.0949 -2.0295 2.8459
C 1.5364 -3.4812 1.2648
O 2.8013 -1.5555 1.8571
H 2.3503 -3.4915 0.4658
H 1.8233 -4.1579 2.1029
H -0.9783 -2.1910 1.0341
C 0.2986 -3.8553 -1.1728
S 0.0856 -4.2061 0.5453
H -0.5739 -3.2697 -1.5316
H 0.3608 -4.8115 -1.7325
H 1.2502 -3.2498 -1.3438
H 3.6029 -2.4592 -1.3474
O 2.8173 -2.1867 -0.9100
H 3.1665 -1.5816 0.9056
36
Frame 43
H -3.4544 2.4180 0.4176
C -2.7806 2.9782 -0.2472
C -1.0699 4.3979 -1.9287
C -1.4630 2.5398 -0.4275
C -3.2381 4.1170 -0.9070
C -2.3837 4.8295 -1.7483
C -0.6094 3.2569 -1.2734
C -1.0093 1.2957 0.2644
H -4.2742 4.4542 -0.7630
H -2.7454 5.7276 -2.2675
H 0.4272 2.9075 -1.4093
H -0.3940 4.9569 -2.5915
H -1.3341 0.3901 -0.3208
H -1.4515 1.2279 1.2955
O 0.4140 1.3013 0.3415
C 0.9399 0.3596 1.2694
H 2.0505 0.5190 1.1958
C 0.6146 -1.0957 0.9238
H 0.5699 0.6015 2.3004
C 1.4699 -2.0481 1.7866
H 0.8351 -1.2939 -0.1663
O -0.7713 -1.2664 1.2084
H 1.0833 -2.0259 2.8445
C 1.5371 -3.4811 1.2688
O 2.7969 -1.5527 1.8695
H 2.3538 -3.4872 0.4703
H 1.8253 -4.1552 2.1084
H -0.9773 -2.1927 1.0037
C 0.3132 -3.8685 -1.1721
S 0.0911 -4.2110 0.5462
H -0.5652 -3.2986 -1.5413
H 0.3953 -4.8266 -1.7258
H 1.2586 -3.2487 -1.3379
H 3.5761 -2.4601 -1.3668
O 2.8096 -2.1884 -0.8960
H 3.1603 -1.5777 0.9759
