26
P1 HEAT OF FORMATION =  125.94804 KCAL =  526.96624 KJ
H                3.4816      0.1098     -1.7475
C                2.8807     -0.1055     -0.8230
C                2.8505      1.0859      0.1208
C                1.3989      1.3069      0.5351
C                0.5329      0.6263     -0.5231
C                1.4696     -0.4157     -1.2068
H                3.3338     -1.0111     -0.3358
H                3.2504      1.9987     -0.3914
H                3.4916      0.9011      1.0196
H                1.2165      0.8630      1.5469
H                1.1622      2.3992      0.5948
O                1.0405     -1.3028     -1.9286
H               -2.0124      0.1710     -1.8020
C               -1.6826     -0.5565     -1.0060
C               -0.7183      0.0455     -0.0797
C               -1.1762     -0.0573      1.3136
C               -2.5330     -0.7622      1.2884
C               -2.8540     -1.0703     -0.1728
H               -1.1626     -1.3911     -1.5836
H               -0.4248     -0.6226      1.9393
H               -1.2446      0.9697      1.7784
H               -3.3211     -0.1079      1.7399
H               -2.4942     -1.7032      1.8938
H               -3.8055     -0.5698     -0.4854
H               -2.9905     -2.1708     -0.3279
H                0.3103      1.3696     -1.3569
26
P2 HEAT OF FORMATION =  126.11411 KCAL =  527.66108 KJ
H                3.4758      0.1321     -1.7633
C                2.8841     -0.0967     -0.8362
C                2.8535      1.0849      0.1199
C                1.4033      1.2931      0.5459
C                0.5361      0.6164     -0.5121
C                1.4716     -0.4124     -1.2114
H                3.3473     -1.0040     -0.3620
H                3.2447      2.0052     -0.3855
H                3.5016      0.8947      1.0125
H                1.2302      0.8382      1.5546
H                1.1600      2.3831      0.6178
O                1.0432     -1.2979     -1.9358
H               -1.9996      0.1536     -1.8064
C               -1.6763     -0.5684     -1.0029
C               -0.7166      0.0393     -0.0752
C               -1.1840     -0.0514      1.3160
C               -2.5436     -0.7506      1.2874
C               -2.8542     -1.0729     -0.1731
H               -1.1552     -1.4087     -1.5709
H               -0.4386     -0.6160      1.9496
H               -1.2502      0.9788      1.7739
H               -3.3324     -0.0878      1.7253
H               -2.5141     -1.6851      1.9032
H               -3.8029     -0.5747     -0.4975
H               -2.9905     -2.1748     -0.3182
H                0.3068      1.3822     -1.3556
26
P3 HEAT OF FORMATION =  126.59204 KCAL =  529.66073 KJ
H                3.4687      0.1607     -1.7830
C                2.8870     -0.0854     -0.8539
C                2.8569      1.0822      0.1201
C                1.4084      1.2752      0.5602
C                0.5391      0.6067     -0.4999
C                1.4728     -0.4052     -1.2205
H                3.3607     -0.9961     -0.3968
H                3.2386      2.0122     -0.3750
H                3.5130      0.8827      1.0049
H                1.2457      0.8049      1.5639
H                1.1585      2.3625      0.6495
O                1.0445     -1.2855     -1.9517
H               -1.9847      0.1276     -1.8131
C               -1.6680     -0.5851     -0.9988
C               -0.7149      0.0322     -0.0705
C               -1.1930     -0.0430      1.3182
C               -2.5574     -0.7324      1.2860
C               -2.8526     -1.0792     -0.1723
H               -1.1436     -1.4319     -1.5540
H               -0.4558     -0.6093      1.9602
H               -1.2531      0.9908      1.7684
H               -3.3464     -0.0553      1.7020
H               -2.5428     -1.6558      1.9196
H               -3.7996     -0.5891     -0.5142
H               -2.9843     -2.1839     -0.3008
H                0.3023      1.3995     -1.3484
26
P4 HEAT OF FORMATION =  127.34488 KCAL =  532.81060 KJ
H                3.4612      0.1888     -1.8006
C                2.8897     -0.0749     -0.8700
C                2.8605      1.0783      0.1213
C                1.4135      1.2599      0.5717
C                0.5423      0.5969     -0.4888
C                1.4739     -0.3992     -1.2279
H                3.3738     -0.9890     -0.4306
H                3.2367      2.0168     -0.3615
H                3.5215      0.8678      0.9999
H                1.2587      0.7792      1.5718
H                1.1587      2.3450      0.6732
O                1.0458     -1.2765     -1.9632
H               -1.9717      0.1054     -1.8182
C               -1.6608     -0.5997     -0.9949
C               -0.7133      0.0265     -0.0662
C               -1.2019     -0.0340      1.3202
C               -2.5688     -0.7183      1.2846
C               -2.8515     -1.0844     -0.1714
H               -1.1339     -1.4522     -1.5389
H               -0.4710     -0.5985      1.9711
H               -1.2602      1.0034      1.7618
H               -3.3589     -0.0321      1.6834
H               -2.5642     -1.6325      1.9312
H               -3.7963     -0.6002     -0.5274
H               -2.9808     -2.1908     -0.2865
H                0.2972      1.4143     -1.3441
26
P5 HEAT OF FORMATION =  128.34012 KCAL =  536.97469 KJ
H                3.4525      0.2142     -1.8159
C                2.8913     -0.0657     -0.8840
C                2.8635      1.0739      0.1229
C                1.4181      1.2461      0.5816
C                0.5452      0.5876     -0.4785
C                1.4744     -0.3949     -1.2333
H                3.3856     -0.9822     -0.4614
H                3.2359      2.0196     -0.3484
H                3.5285      0.8529      0.9957
H                1.2700      0.7569      1.5785
H                1.1595      2.3291      0.6933
O                1.0461     -1.2699     -1.9716
H               -1.9606      0.0870     -1.8215
C               -1.6545     -0.6117     -0.9911
C               -0.7122      0.0220     -0.0621
C               -1.2104     -0.0246      1.3213
C               -2.5777     -0.7071      1.2830
C               -2.8502     -1.0888     -0.1706
H               -1.1257     -1.4687     -1.5255
H               -0.4845     -0.5847      1.9816
H               -1.2695      1.0164      1.7537
H               -3.3695     -0.0157      1.6680
H               -2.5795     -1.6140      1.9394
H               -3.7931     -0.6097     -0.5379
H               -2.9776     -2.1964     -0.2747
H                0.2941      1.4282     -1.3423
26
P6 HEAT OF FORMATION =  129.55579 KCAL =  542.06105 KJ
H                3.4449      0.2401     -1.8316
C                2.8932     -0.0555     -0.8992
C                2.8671      1.0703      0.1232
C                1.4236      1.2299      0.5935
C                0.5484      0.5777     -0.4671
C                1.4750     -0.3887     -1.2406
H                3.3964     -0.9742     -0.4929
H                3.2324      2.0238     -0.3375
H                3.5385      0.8404      0.9887
H                1.2844      0.7289      1.5859
H                1.1600      2.3101      0.7191
O                1.0466     -1.2597     -1.9839
H               -1.9470      0.0640     -1.8262
C               -1.6471     -0.6264     -0.9869
C               -0.7108      0.0167     -0.0577
C               -1.2194     -0.0149      1.3225
C               -2.5885     -0.6936      1.2810
C               -2.8492     -1.0937     -0.1698
H               -1.1159     -1.4890     -1.5092
H               -0.4997     -0.5716      1.9925
H               -1.2777      1.0299      1.7452
H               -3.3816      0.0054      1.6496
H               -2.5993     -1.5916      1.9493
H               -3.7894     -0.6200     -0.5506
H               -2.9750     -2.2026     -0.2610
H                0.2897      1.4443     -1.3362
26
P7 HEAT OF FORMATION =  130.96232 KCAL =  547.94596 KJ
H                3.4347      0.2737     -1.8512
C                2.8951     -0.0423     -0.9185
C                2.8713      1.0654      0.1238
C                1.4306      1.2091      0.6081
C                0.5522      0.5664     -0.4542
C                1.4754     -0.3801     -1.2505
H                3.4095     -0.9640     -0.5335
H                3.2282      2.0289     -0.3227
H                3.5505      0.8237      0.9800
H                1.3022      0.6922      1.5941
H                1.1612      2.2855      0.7524
O                1.0465     -1.2449     -2.0010
H               -1.9294      0.0338     -1.8321
C               -1.6375     -0.6454     -0.9811
C               -0.7087      0.0094     -0.0524
C               -1.2306     -0.0021      1.3237
C               -2.6020     -0.6755      1.2779
C               -2.8471     -1.1005     -0.1685
H               -1.1032     -1.5151     -1.4878
H               -0.5190     -0.5544      2.0060
H               -1.2874      1.0476      1.7338
H               -3.3962      0.0335      1.6244
H               -2.6250     -1.5613      1.9623
H               -3.7841     -0.6350     -0.5669
H               -2.9703     -2.2111     -0.2421
H                0.2834      1.4625     -1.3239
26
P8 HEAT OF FORMATION =  132.53735 KCAL =  554.53587 KJ
H                3.4246      0.3070     -1.8691
C                2.8964     -0.0292     -0.9370
C                2.8754      1.0598      0.1252
C                1.4373      1.1893      0.6216
C                0.5558      0.5555     -0.4421
C                1.4754     -0.3711     -1.2605
H                3.4210     -0.9538     -0.5734
H                3.2259      2.0323     -0.3062
H                3.5611      0.8053      0.9724
H                1.3183      0.6586      1.6016
H                1.1632      2.2622      0.7825
O                1.0460     -1.2298     -2.0180
H               -1.9140      0.0054     -1.8365
C               -1.6286     -0.6637     -0.9754
C               -0.7067      0.0028     -0.0475
C               -1.2408      0.0099      1.3244
C               -2.6151     -0.6572      1.2744
C               -2.8445     -1.1085     -0.1665
H               -1.0913     -1.5391     -1.4683
H               -0.5373     -0.5395      2.0175
H               -1.2949      1.0636      1.7236
H               -3.4095      0.0627      1.5971
H               -2.6516     -1.5294      1.9753
H               -3.7793     -0.6537     -0.5822
H               -2.9630     -2.2206     -0.2215
H                0.2763      1.4812     -1.3114
26
P9 HEAT OF FORMATION =  134.26329 KCAL =  561.75721 KJ
H                3.4158      0.3351     -1.8843
C                2.8980     -0.0174     -0.9528
C                2.8793      1.0564      0.1247
C                1.4441      1.1710      0.6340
C                0.5598      0.5438     -0.4299
C                1.4760     -0.3641     -1.2681
H                3.4317     -0.9432     -0.6068
H                3.2215      2.0368     -0.2954
H                3.5727      0.7934      0.9630
H                1.3355      0.6274      1.6085
H                1.1643      2.2402      0.8103
O                1.0461     -1.2186     -2.0306
H               -1.8972     -0.0213     -1.8416
C               -1.6201     -0.6803     -0.9699
C               -0.7046     -0.0038     -0.0424
C               -1.2504      0.0203      1.3249
C               -2.6264     -0.6430      1.2712
C               -2.8438     -1.1126     -0.1658
H               -1.0809     -1.5625     -1.4479
H               -0.5541     -0.5243      2.0289
H               -1.3040      1.0780      1.7129
H               -3.4216      0.0838      1.5767
H               -2.6725     -1.5057      1.9835
H               -3.7742     -0.6619     -0.5955
H               -2.9635     -2.2252     -0.2073
H                0.2687      1.4975     -1.3002
26
P10 HEAT OF FORMATION =  136.10915 KCAL =  569.48027 KJ
H                3.4014      0.3778     -1.9060
C                2.8983     -0.0002     -0.9761
C                2.8842      1.0491      0.1262
C                1.4532      1.1449      0.6510
C                0.5641      0.5312     -0.4156
C                1.4750     -0.3518     -1.2806
H                3.4446     -0.9290     -0.6577
H                3.2176      2.0406     -0.2744
H                3.5864      0.7707      0.9521
H                1.3568      0.5816      1.6155
H                1.1682      2.2083      0.8510
O                1.0435     -1.1965     -2.0535
H               -1.8747     -0.0621     -1.8481
C               -1.6080     -0.7049     -0.9615
C               -0.7023     -0.0118     -0.0362
C               -1.2637      0.0373      1.3246
C               -2.6420     -0.6203      1.2659
C               -2.8406     -1.1218     -0.1633
H               -1.0646     -1.5954     -1.4180
H               -0.5771     -0.5003      2.0436
H               -1.3158      1.1006      1.6965
H               -3.4379      0.1177      1.5426
H               -2.7034     -1.4661      1.9975
H               -3.7665     -0.6829     -0.6145
H               -2.9575     -2.2356     -0.1819
H                0.2609      1.5188     -1.2791
26
P11 HEAT OF FORMATION =  138.06690 KCAL =  577.67150 KJ
H                3.3909      0.4080     -1.9204
C                2.8988      0.0122     -0.9922
C                2.8881      1.0440      0.1267
C                1.4603      1.1258      0.6629
C                0.5680      0.5194     -0.4037
C                1.4746     -0.3441     -1.2884
H                3.4540     -0.9176     -0.6934
H                3.2152      2.0429     -0.2602
H                3.5970      0.7551      0.9433
H                1.3734      0.5505      1.6212
H                1.1711      2.1850      0.8779
O                1.0423     -1.1836     -2.0668
H               -1.8577     -0.0907     -1.8525
C               -1.5994     -0.7220     -0.9552
C               -0.7005     -0.0177     -0.0313
C               -1.2739      0.0501      1.3241
C               -2.6524     -0.6063      1.2617
C               -2.8394     -1.1266     -0.1619
H               -1.0538     -1.6189     -1.3956
H               -0.5940     -0.4800      2.0551
H               -1.3275      1.1177      1.6829
H               -3.4494      0.1358      1.5216
H               -2.7214     -1.4421      2.0034
H               -3.7608     -0.6927     -0.6268
H               -2.9576     -2.2401     -0.1665
H                0.2539      1.5360     -1.2659
26
P12 HEAT OF FORMATION =  140.11978 KCAL =  586.26073 KJ
H                3.3777      0.4424     -1.9357
C                2.8991      0.0266     -1.0095
C                2.8923      1.0389      0.1272
C                1.4679      1.1058      0.6751
C                0.5723      0.5065     -0.3914
C                1.4744     -0.3364     -1.2961
H                3.4653     -0.9033     -0.7329
H                3.2128      2.0456     -0.2444
H                3.6079      0.7386      0.9337
H                1.3911      0.5181      1.6270
H                1.1741      2.1604      0.9057
O                1.0414     -1.1706     -2.0801
H               -1.8377     -0.1235     -1.8575
C               -1.5899     -0.7413     -0.9480
C               -0.6982     -0.0249     -0.0258
C               -1.2839      0.0622      1.3236
C               -2.6638     -0.5907      1.2569
C               -2.8385     -1.1307     -0.1609
H               -1.0424     -1.6458     -1.3692
H               -0.6119     -0.4616      2.0663
H               -1.3371      1.1339      1.6695
H               -3.4609      0.1576      1.4983
H               -2.7428     -1.4155      2.0098
H               -3.7542     -0.7010     -0.6406
H               -2.9600     -2.2439     -0.1507
H                0.2451      1.5526     -1.2503
26
P13 HEAT OF FORMATION =  142.25251 KCAL =  595.18408 KJ
H                3.3647      0.4759     -1.9506
C                2.8992      0.0409     -1.0265
C                2.8965      1.0342      0.1272
C                1.4761      1.0851      0.6875
C                0.5768      0.4931     -0.3786
C                1.4741     -0.3287     -1.3035
H                3.4759     -0.8887     -0.7714
H                3.2094      2.0486     -0.2298
H                3.6197      0.7237      0.9230
H                1.4102      0.4846      1.6323
H                1.1774      2.1346      0.9343
O                1.0399     -1.1575     -2.0929
H               -1.8171     -0.1565     -1.8620
C               -1.5804     -0.7603     -0.9405
C               -0.6958     -0.0320     -0.0201
C               -1.2943      0.0748      1.3228
C               -2.6751     -0.5756      1.2518
C               -2.8378     -1.1345     -0.1601
H               -1.0311     -1.6724     -1.3421
H               -0.6299     -0.4414      2.0777
H               -1.3480      1.1506      1.6549
H               -3.4726      0.1778      1.4755
H               -2.7632     -1.3899      2.0150
H               -3.7473     -0.7084     -0.6546
H               -2.9634     -2.2470     -0.1358
H                0.2361      1.5688     -1.2334
26
P14 HEAT OF FORMATION =  144.45158 KCAL =  604.38497 KJ
H                3.3513      0.5084     -1.9647
C                2.8990      0.0552     -1.0430
C                2.9006      1.0299      0.1266
C                1.4845      1.0642      0.6997
C                0.5814      0.4794     -0.3659
C                1.4736     -0.3214     -1.3101
H                3.4857     -0.8736     -0.8086
H                3.2054      2.0515     -0.2164
H                3.6320      0.7104      0.9113
H                1.4301      0.4507      1.6369
H                1.1810      2.1082      0.9632
O                1.0383     -1.1454     -2.1044
H               -1.7963     -0.1889     -1.8661
C               -1.5709     -0.7788     -0.9328
C               -0.6935     -0.0388     -0.0142
C               -1.3045      0.0873      1.3217
C               -2.6860     -0.5610      1.2463
C               -2.8371     -1.1378     -0.1596
H               -1.0200     -1.6981     -1.3146
H               -0.6479     -0.4208      2.0888
H               -1.3591      1.1671      1.6397
H               -3.4839      0.1967      1.4529
H               -2.7829     -1.3652      2.0191
H               -3.7401     -0.7148     -0.6684
H               -2.9673     -2.2493     -0.1218
H                0.2266      1.5847     -1.2157
26
P15 HEAT OF FORMATION =  146.70727 KCAL =  613.82280 KJ
H                3.3397      0.5359     -1.9762
C                2.8989      0.0673     -1.0564
C                2.9041      1.0265      0.1262
C                1.4918      1.0464      0.7098
C                0.5858      0.4661     -0.3543
C                1.4735     -0.3165     -1.3147
H                3.4947     -0.8601     -0.8395
H                3.2018      2.0541     -0.2050
H                3.6424      0.6998      0.9015
H                1.4474      0.4230      1.6412
H                1.1837      2.0856      0.9863
O                1.0378     -1.1373     -2.1123
H               -1.7810     -0.2131     -1.8679
C               -1.5639     -0.7930     -0.9266
C               -0.6916     -0.0445     -0.0093
C               -1.3128      0.0975      1.3207
C               -2.6951     -0.5486      1.2413
C               -2.8365     -1.1408     -0.1592
H               -1.0123     -1.7171     -1.2939
H               -0.6628     -0.4047      2.0973
H               -1.3676      1.1802      1.6279
H               -3.4929      0.2131      1.4332
H               -2.7999     -1.3439      2.0224
H               -3.7349     -0.7221     -0.6797
H               -2.9689     -2.2518     -0.1098
H                0.2189      1.5982     -1.2029
26
P16 HEAT OF FORMATION =  149.00456 KCAL =  623.43466 KJ
H                3.3242      0.5700     -1.9894
C                2.8985      0.0828     -1.0726
C                2.9081      1.0234      0.1251
C                1.5009      1.0250      0.7215
C                0.5912      0.4503     -0.3412
C                1.4737     -0.3107     -1.3203
H                3.5056     -0.8418     -0.8771
H                3.1963      2.0579     -0.1924
H                3.6552      0.6894      0.8886
H                1.4693      0.3889      1.6449
H                1.1871      2.0579      1.0147
O                1.0374     -1.1279     -2.1216
H               -1.7589     -0.2462     -1.8710
C               -1.5544     -0.8120     -0.9184
C               -0.6885     -0.0529     -0.0031
C               -1.3221      0.1083      1.3195
C               -2.7062     -0.5329      1.2348
C               -2.8364     -1.1428     -0.1590
H               -1.0027     -1.7437     -1.2653
H               -0.6813     -0.3877      2.1074
H               -1.3753      1.1944      1.6136
H               -3.5026      0.2345      1.4088
H               -2.8222     -1.3174      2.0250
H               -3.7273     -0.7264     -0.6940
H               -2.9754     -2.2522     -0.0963
H                0.2058      1.6118     -1.1819
26
P17 HEAT OF FORMATION =  151.33710 KCAL =  633.19397 KJ
H                3.3100      0.5988     -2.0006
C                2.8984      0.0962     -1.0857
C                2.9113      1.0221      0.1236
C                1.5087      1.0070      0.7311
C                0.5964      0.4345     -0.3291
C                1.4746     -0.3080     -1.3233
H                3.5165     -0.8246     -0.9079
H                3.1904      2.0623     -0.1830
H                3.6664      0.6833      0.8771
H                1.4889      0.3618      1.6487
H                1.1890      2.0344      1.0370
O                1.0387     -1.1241     -2.1262
H               -1.7404     -0.2725     -1.8730
C               -1.5471     -0.8270     -0.9116
C               -0.6857     -0.0606      0.0026
C               -1.3293      0.1160      1.3189
C               -2.7154     -0.5201      1.2291
C               -2.8373     -1.1429     -0.1598
H               -0.9965     -1.7652     -1.2414
H               -0.6964     -0.3763      2.1155
H               -1.3804      1.2045      1.6035
H               -3.5099      0.2522      1.3894
H               -2.8410     -1.2965      2.0259
H               -3.7213     -0.7266     -0.7063
H               -2.9833     -2.2508     -0.0874
H                0.1948      1.6218     -1.1672
26
P18 HEAT OF FORMATION =  153.69448 KCAL =  643.05724 KJ
H                3.2938      0.6304     -2.0125
C                2.8980      0.1115     -1.0999
C                2.9145      1.0216      0.1215
C                1.5172      0.9886      0.7409
C                0.6021      0.4174     -0.3162
C                1.4757     -0.3052     -1.3262
H                3.5281     -0.8046     -0.9410
H                3.1839      2.0677     -0.1736
H                3.6783      0.6781      0.8641
H                1.5103      0.3344      1.6525
H                1.1910      2.0101      1.0596
O                1.0406     -1.1210     -2.1301
H               -1.7183     -0.3032     -1.8753
C               -1.5389     -0.8441     -0.9038
C               -0.6822     -0.0699      0.0092
C               -1.3360      0.1221      1.3189
C               -2.7255     -0.5054      1.2223
C               -2.8386     -1.1417     -0.1612
H               -0.9903     -1.7900     -1.2131
H               -0.7127     -0.3695      2.1235
H               -1.3822      1.2125      1.5960
H               -3.5161      0.2740      1.3669
H               -2.8641     -1.2725      2.0259
H               -3.7140     -0.7244     -0.7206
H               -2.9942     -2.2477     -0.0787
H                0.1797      1.6306     -1.1488
26
P19 HEAT OF FORMATION =  156.06560 KCAL =  652.97800 KJ
H                3.2778      0.6592     -2.0230
C                2.8975      0.1255     -1.1124
C                2.9173      1.0216      0.1195
C                1.5253      0.9712      0.7498
C                0.6078      0.4002     -0.3039
C                1.4773     -0.3042     -1.3278
H                3.5394     -0.7853     -0.9710
H                3.1770      2.0729     -0.1653
H                3.6894      0.6748      0.8518
H                1.5311      0.3091      1.6558
H                1.1928      1.9869      1.0801
O                1.0433     -1.1207     -2.1318
H               -1.6992     -0.3290     -1.8766
C               -1.5320     -0.8586     -0.8969
C               -0.6789     -0.0783      0.0153
C               -1.3420      0.1278      1.3187
C               -2.7343     -0.4923      1.2158
C               -2.8400     -1.1402     -0.1627
H               -0.9858     -1.8111     -1.1888
H               -0.7276     -0.3627      2.1308
H               -1.3841      1.2199      1.5883
H               -3.5214      0.2930      1.3469
H               -2.8842     -1.2514      2.0250
H               -3.7075     -0.7218     -0.7334
H               -3.0042     -2.2442     -0.0717
H                0.1651      1.6377     -1.1327
26
P20 HEAT OF FORMATION =  158.44424 KCAL =  662.93024 KJ
H                3.2611      0.6878     -2.0332
C                2.8971      0.1396     -1.1247
C                2.9201      1.0223      0.1170
C                1.5341      0.9523      0.7592
C                0.6142      0.3813     -0.2909
C                1.4794     -0.3044     -1.3289
H                3.5512     -0.7648     -1.0005
H                3.1677      2.0790     -0.1582
H                3.7017      0.6743      0.8386
H                1.5542      0.2815      1.6588
H                1.1944      1.9613      1.1026
O                1.0470     -1.1221     -2.1326
H               -1.6805     -0.3540     -1.8774
C               -1.5254     -0.8728     -0.8902
C               -0.6755     -0.0870      0.0213
C               -1.3481      0.1341      1.3180
C               -2.7430     -0.4789      1.2090
C               -2.8415     -1.1382     -0.1646
H               -0.9822     -1.8317     -1.1652
H               -0.7428     -0.3539      2.1382
H               -1.3866      1.2283      1.5790
H               -3.5267      0.3118      1.3270
H               -2.9036     -1.2301      2.0235
H               -3.7011     -0.7187     -0.7463
H               -3.0145     -2.2402     -0.0652
H                0.1492      1.6432     -1.1145
26
P21 HEAT OF FORMATION =  160.81656 KCAL =  672.85600 KJ
H                3.2416      0.7191     -2.0443
C                2.8966      0.1557     -1.1377
C                2.9226      1.0246      0.1138
C                1.5436      0.9329      0.7686
C                0.6216      0.3602     -0.2770
C                1.4825     -0.3061     -1.3289
H                3.5651     -0.7407     -1.0319
H                3.1569      2.0868     -0.1515
H                3.7146      0.6763      0.8238
H                1.5796      0.2538      1.6616
H                1.1955      1.9345      1.1251
O                1.0532     -1.1274     -2.1308
H               -1.6592     -0.3815     -1.8782
C               -1.5184     -0.8882     -0.8829
C               -0.6714     -0.0973      0.0281
C               -1.3533      0.1388      1.3180
C               -2.7521     -0.4639      1.2012
C               -2.8437     -1.1341     -0.1675
H               -0.9800     -1.8546     -1.1386
H               -0.7588     -0.3499      2.1455
H               -1.3855      1.2343      1.5724
H               -3.5305      0.3340      1.3055
H               -2.9262     -1.2068      2.0205
H               -3.6936     -0.7113     -0.7610
H               -3.0287     -2.2334     -0.0602
H                0.1278      1.6444     -1.0937
