15
P1 HEAT OF FORMATION =  119.69004 KCAL =  500.78279 KJ
C               -0.5660      0.9578     -0.0235
C                0.9032      0.9331     -0.2287
C                1.3005     -0.5393     -0.1373
C                0.0405     -1.3549      0.1535
C               -1.1438     -0.3880      0.2018
O               -1.2079      2.0925     -0.0536
H                1.4193      1.5640      0.5510
H                1.1711      1.3889     -1.2246
H                1.7719     -0.8716     -1.0979
H                2.0602     -0.6847      0.6732
H                0.1371     -1.8963      1.1295
H               -0.1222     -2.1276     -0.6408
H               -1.6779     -0.4347      1.1927
H               -1.9076     -0.6299     -0.5909
H               -2.1784      1.9907      0.0954
15
P2 HEAT OF FORMATION =  119.89783 KCAL =  501.65219 KJ
C               -0.5673      0.9561     -0.0259
C                0.9025      0.9330     -0.2136
C                1.2970     -0.5406     -0.1594
C                0.0433     -1.3544      0.1633
C               -1.1444     -0.3908      0.1971
O               -1.2123      2.0889     -0.0704
H                1.4110      1.5461      0.6198
H                1.1981      1.4297     -1.1796
H                1.7310     -0.8594     -1.1421
H                2.0849     -0.7030      0.6202
H                0.1505     -1.8691      1.1525
H               -0.1226     -2.1484     -0.6090
H               -1.6895     -0.4374      1.1818
H               -1.8983     -0.6358     -0.6041
H               -2.1838      1.9849      0.0695
15
P3 HEAT OF FORMATION =  120.48697 KCAL =  504.11713 KJ
C               -0.5685      0.9546     -0.0285
C                0.9015      0.9325     -0.2008
C                1.2935     -0.5413     -0.1795
C                0.0462     -1.3538      0.1711
C               -1.1447     -0.3933      0.1938
O               -1.2161      2.0854     -0.0882
H                1.4015      1.5269      0.6845
H                1.2232      1.4670     -1.1356
H                1.6939     -0.8475     -1.1805
H                2.1055     -0.7180      0.5715
H                0.1635     -1.8456      1.1708
H               -0.1224     -2.1653     -0.5820
H               -1.6986     -0.4402      1.1733
H               -1.8902     -0.6411     -0.6144
H               -2.1884      1.9796      0.0444
15
P4 HEAT OF FORMATION =  121.41837 KCAL =  508.01409 KJ
C               -0.5693      0.9535     -0.0312
C                0.9006      0.9318     -0.1893
C                1.2903     -0.5413     -0.1974
C                0.0490     -1.3532      0.1761
C               -1.1444     -0.3953      0.1924
O               -1.2200      2.0817     -0.1079
H                1.3917      1.5067      0.7458
H                1.2462      1.5005     -1.0927
H                1.6619     -0.8354     -1.2130
H                2.1217     -0.7303      0.5287
H                0.1755     -1.8275      1.1829
H               -0.1224     -2.1774     -0.5622
H               -1.7025     -0.4415      1.1693
H               -1.8855     -0.6458     -0.6190
H               -2.1929      1.9736      0.0174
15
P5 HEAT OF FORMATION =  122.65633 KCAL =  513.19373 KJ
C               -0.5700      0.9524     -0.0343
C                0.8993      0.9309     -0.1800
C                1.2877     -0.5407     -0.2122
C                0.0513     -1.3529      0.1776
C               -1.1439     -0.3968      0.1935
O               -1.2235      2.0779     -0.1300
H                1.3804      1.4878      0.8023
H                1.2672      1.5301     -1.0521
H                1.6373     -0.8241     -1.2388
H                2.1336     -0.7394      0.4942
H                0.1862     -1.8173      1.1880
H               -0.1231     -2.1843     -0.5517
H               -1.7007     -0.4418      1.1710
H               -1.8851     -0.6499     -0.6168
H               -2.1968      1.9680     -0.0106
15
P6 HEAT OF FORMATION =  124.16783 KCAL =  519.51785 KJ
C               -0.5706      0.9516     -0.0373
C                0.8980      0.9301     -0.1718
C                1.2854     -0.5397     -0.2260
C                0.0537     -1.3527      0.1781
C               -1.1431     -0.3980      0.1951
O               -1.2266      2.0741     -0.1523
H                1.3684      1.4682      0.8564
H                1.2866      1.5576     -1.0121
H                1.6153     -0.8130     -1.2618
H                2.1438     -0.7469      0.4625
H                0.1964     -1.8089      1.1910
H               -0.1238     -2.1896     -0.5440
H               -1.6977     -0.4418      1.1738
H               -1.8855     -0.6533     -0.6133
H               -2.2003      1.9625     -0.0382
15
P7 HEAT OF FORMATION =  125.92249 KCAL =  526.85931 KJ
C               -0.5710      0.9510     -0.0407
C                0.8965      0.9294     -0.1652
C                1.2837     -0.5383     -0.2376
C                0.0556     -1.3526      0.1761
C               -1.1421     -0.3986      0.1986
O               -1.2296      2.0699     -0.1764
H                1.3549      1.4494      0.9073
H                1.3046      1.5825     -0.9740
H                1.5991     -0.8026     -1.2803
H                2.1512     -0.7523      0.4371
H                0.2052     -1.8067      1.1889
H               -0.1254     -2.1910     -0.5434
H               -1.6902     -0.4405      1.1809
H               -1.8892     -0.6561     -0.6046
H               -2.2035      1.9566     -0.0667
15
P8 HEAT OF FORMATION =  127.89313 KCAL =  535.10448 KJ
C               -0.5713      0.9505     -0.0441
C                0.8949      0.9286     -0.1597
C                1.2824     -0.5367     -0.2480
C                0.0573     -1.3526      0.1730
C               -1.1410     -0.3990      0.2026
O               -1.2321      2.0657     -0.2008
H                1.3405      1.4307      0.9558
H                1.3213      1.6054     -0.9367
H                1.5857     -0.7927     -1.2965
H                2.1574     -0.7563      0.4149
H                0.2134     -1.8066      1.1848
H               -0.1272     -2.1908     -0.5457
H               -1.6812     -0.4388      1.1892
H               -1.8940     -0.6585     -0.5942
H               -2.2062      1.9510     -0.0946
15
P9 HEAT OF FORMATION =  130.05493 KCAL =  544.14943 KJ
C               -0.5714      0.9504     -0.0472
C                0.8935      0.9279     -0.1550
C                1.2810     -0.5350     -0.2590
C                0.0593     -1.3522      0.1707
C               -1.1398     -0.3993      0.2055
O               -1.2342      2.0618     -0.2233
H                1.3248      1.4100      1.0034
H                1.3375      1.6276     -0.8989
H                1.5717     -0.7832     -1.3130
H                2.1637     -0.7598      0.3918
H                0.2218     -1.8041      1.1823
H               -0.1284     -2.1917     -0.5456
H               -1.6742     -0.4376      1.1952
H               -1.8969     -0.6604     -0.5866
H               -2.2084      1.9456     -0.1203
15
P10 HEAT OF FORMATION =  132.38547 KCAL =  553.90044 KJ
C               -0.5713      0.9504     -0.0505
C                0.8920      0.9273     -0.1515
C                1.2800     -0.5332     -0.2686
C                0.0611     -1.3518      0.1672
C               -1.1385     -0.3992      0.2091
O               -1.2361      2.0578     -0.2461
H                1.3080      1.3899      1.0484
H                1.3527      1.6479     -0.8623
H                1.5608     -0.7742     -1.3270
H                2.1688     -0.7623      0.3722
H                0.2294     -1.8043      1.1775
H               -0.1300     -2.1907     -0.5488
H               -1.6655     -0.4358      1.2026
H               -1.9010     -0.6617     -0.5772
H               -2.2102      1.9401     -0.1451
15
P11 HEAT OF FORMATION =  134.86432 KCAL =  564.27193 KJ
C               -0.5710      0.9506     -0.0534
C                0.8904      0.9266     -0.1488
C                1.2792     -0.5313     -0.2779
C                0.0629     -1.3514      0.1637
C               -1.1371     -0.3990      0.2122
O               -1.2375      2.0540     -0.2677
H                1.2902      1.3693      1.0916
H                1.3667      1.6670     -0.8260
H                1.5509     -0.7659     -1.3403
H                2.1735     -0.7639      0.3538
H                0.2366     -1.8042      1.1729
H               -0.1313     -2.1899     -0.5520
H               -1.6575     -0.4345      1.2091
H               -1.9044     -0.6627     -0.5687
H               -2.2116      1.9352     -0.1684
15
P12 HEAT OF FORMATION =  137.47270 KCAL =  575.18539 KJ
C               -0.5705      0.9510     -0.0566
C                0.8891      0.9260     -0.1472
C                1.2786     -0.5293     -0.2868
C                0.0646     -1.3508      0.1599
C               -1.1355     -0.3985      0.2153
O               -1.2388      2.0502     -0.2889
H                1.2705      1.3483      1.1333
H                1.3807      1.6847     -0.7900
H                1.5422     -0.7581     -1.3525
H                2.1778     -0.7650      0.3367
H                0.2435     -1.8048      1.1675
H               -0.1327     -2.1882     -0.5560
H               -1.6489     -0.4325      1.2157
H               -1.9079     -0.6633     -0.5600
H               -2.2126      1.9302     -0.1904
15
P13 HEAT OF FORMATION =  140.19322 KCAL =  586.56801 KJ
C               -0.5697      0.9517     -0.0596
C                0.8878      0.9255     -0.1469
C                1.2783     -0.5273     -0.2955
C                0.0664     -1.3500      0.1562
C               -1.1339     -0.3978      0.2178
O               -1.2398      2.0468     -0.3084
H                1.2492      1.3270      1.1729
H                1.3941      1.7012     -0.7547
H                1.5346     -0.7512     -1.3640
H                2.1819     -0.7655      0.3205
H                0.2502     -1.8047      1.1627
H               -0.1339     -2.1868     -0.5595
H               -1.6415     -0.4309      1.2210
H               -1.9104     -0.6633     -0.5530
H               -2.2133      1.9256     -0.2095
15
P14 HEAT OF FORMATION =  143.00950 KCAL =  598.35133 KJ
C               -0.5688      0.9526     -0.0628
C                0.8865      0.9249     -0.1478
C                1.2782     -0.5255     -0.3036
C                0.0682     -1.3492      0.1522
C               -1.1321     -0.3970      0.2202
O               -1.2406      2.0436     -0.3271
H                1.2260      1.3058      1.2104
H                1.4072      1.7161     -0.7201
H                1.5288     -0.7452     -1.3745
H                2.1854     -0.7653      0.3064
H                0.2563     -1.8053      1.1571
H               -0.1350     -2.1849     -0.5639
H               -1.6336     -0.4291      1.2262
H               -1.9129     -0.6631     -0.5459
H               -2.2137      1.9216     -0.2268
15
P15 HEAT OF FORMATION =  145.40866 KCAL =  608.38943 KJ
C               -0.5677      0.9537     -0.0649
C                0.8858      0.9247     -0.1480
C                1.2784     -0.5235     -0.3107
C                0.0698     -1.3483      0.1483
C               -1.1304     -0.3961      0.2221
O               -1.2408      2.0407     -0.3437
H                1.2028      1.2846      1.2428
H                1.4188      1.7294     -0.6871
H                1.5239     -0.7393     -1.3837
H                2.1888     -0.7652      0.2940
H                0.2617     -1.8059      1.1518
H               -0.1359     -2.1828     -0.5685
H               -1.6269     -0.4279      1.2304
H               -1.9147     -0.6623     -0.5403
H               -2.2137      1.9182     -0.2423
15
P16 HEAT OF FORMATION =  148.35493 KCAL =  620.71658 KJ
C               -0.5661      0.9549     -0.0679
C                0.8848      0.9241     -0.1516
C                1.2789     -0.5219     -0.3185
C                0.0719     -1.3473      0.1448
C               -1.1284     -0.3950      0.2230
O               -1.2410      2.0386     -0.3587
H                1.1749      1.2633      1.2763
H                1.4316      1.7416     -0.6539
H                1.5196     -0.7352     -1.3932
H                2.1922     -0.7641      0.2812
H                0.2676     -1.8050      1.1474
H               -0.1363     -2.1816     -0.5715
H               -1.6211     -0.4265      1.2329
H               -1.9152     -0.6613     -0.5366
H               -2.2132      1.9155     -0.2537
15
P17 HEAT OF FORMATION =  151.35738 KCAL =  633.27883 KJ
C               -0.5642      0.9564     -0.0710
C                0.8841      0.9234     -0.1568
C                1.2797     -0.5205     -0.3258
C                0.0739     -1.3463      0.1410
C               -1.1262     -0.3938      0.2237
O               -1.2409      2.0370     -0.3720
H                1.1436      1.2429      1.3073
H                1.4442      1.7521     -0.6221
H                1.5170     -0.7325     -1.4017
H                2.1954     -0.7625      0.2705
H                0.2730     -1.8047      1.1426
H               -0.1367     -2.1800     -0.5752
H               -1.6154     -0.4251      1.2350
H               -1.9152     -0.6600     -0.5335
H               -2.2124      1.9136     -0.2620
15
P18 HEAT OF FORMATION =  154.39793 KCAL =  646.00049 KJ
C               -0.5616      0.9580     -0.0740
C                0.8836      0.9224     -0.1643
C                1.2809     -0.5196     -0.3332
C                0.0763     -1.3452      0.1378
C               -1.1236     -0.3925      0.2230
O               -1.2404      2.0366     -0.3820
H                1.1069      1.2228      1.3354
H                1.4574      1.7608     -0.5914
H                1.5152     -0.7315     -1.4099
H                2.1989     -0.7605      0.2601
H                0.2785     -1.8026      1.1393
H               -0.1362     -2.1796     -0.5770
H               -1.6115     -0.4241      1.2347
H               -1.9135     -0.6582     -0.5335
H               -2.2107      1.9132     -0.2649
15
P19 HEAT OF FORMATION =  157.45756 KCAL =  658.80196 KJ
C               -0.5583      0.9599     -0.0770
C                0.8835      0.9212     -0.1746
C                1.2827     -0.5192     -0.3403
C                0.0790     -1.3442      0.1347
C               -1.1206     -0.3912      0.2218
O               -1.2392      2.0372     -0.3890
H                1.0624      1.2043      1.3599
H                1.4714      1.7672     -0.5630
H                1.5154     -0.7326     -1.4173
H                2.2023     -0.7579      0.2515
H                0.2838     -1.8006      1.1360
H               -0.1354     -2.1793     -0.5788
H               -1.6081     -0.4231      1.2333
H               -1.9106     -0.6559     -0.5349
H               -2.2082      1.9142     -0.2621
15
P20 HEAT OF FORMATION =  160.53457 KCAL =  671.67616 KJ
C               -0.5532      0.9621     -0.0801
C                0.8842      0.9190     -0.1904
C                1.2855     -0.5199     -0.3478
C                0.0825     -1.3434      0.1322
C               -1.1167     -0.3897      0.2190
O               -1.2368      2.0403     -0.3899
H                1.0010      1.1875      1.3780
H                1.4878      1.7707     -0.5377
H                1.5178     -0.7378     -1.4242
H                2.2062     -0.7545      0.2441
H                0.2896     -1.7967      1.1345
H               -0.1335     -2.1806     -0.5781
H               -1.6064     -0.4227      1.2289
H               -1.9047     -0.6527     -0.5404
H               -2.2034      1.9183     -0.2481
