8
P1 HEAT OF FORMATION =  4.84968 KCAL =  20.29105 KJ
H               -0.7012      1.2416      0.9235
C               -0.7222      0.6429      0.0012
C               -0.8141     -0.6688      0.0023
H               -0.6741      1.2379     -0.9221
H               -0.8741     -1.2627      0.9257
H               -0.8461     -1.2668     -0.9200
H                1.6000      0.0365      0.0061
Br               3.0318      0.0394     -0.0167
8
P2 HEAT OF FORMATION =  5.44767 KCAL =  22.79306 KJ
H               -0.6595      1.2314      0.9228
C               -0.7049      0.6368     -0.0006
C               -0.8189     -0.6796      0.0003
H               -0.6654      1.2307     -0.9248
H               -0.8710     -1.2723      0.9245
H               -0.8768     -1.2729     -0.9231
H                1.5568      0.0668     -0.0020
Br               3.0398      0.0592      0.0030
8
P3 HEAT OF FORMATION =  7.19324 KCAL =  30.09651 KJ
H               -0.6386      1.2214      0.9274
C               -0.6870      0.6312      0.0016
C               -0.8225     -0.6895     -0.0008
H               -0.6372      1.2246     -0.9219
H               -0.8869     -1.2812      0.9228
H               -0.8854     -1.2781     -0.9265
H                1.5119      0.0888     -0.0007
Br               3.0458      0.0829     -0.0018
8
P4 HEAT OF FORMATION =  9.92806 KCAL =  41.53897 KJ
H               -0.6171      1.2132      0.9296
C               -0.6695      0.6261      0.0025
C               -0.8247     -0.6987     -0.0013
H               -0.6136      1.2180     -0.9213
H               -0.8979     -1.2883      0.9225
H               -0.8942     -1.2835     -0.9284
H                1.4661      0.1094      0.0002
Br               3.0509      0.1038     -0.0037
8
P5 HEAT OF FORMATION =  13.50146 KCAL =  56.49009 KJ
H               -0.5972      1.2072      0.9298
C               -0.6523      0.6217      0.0021
C               -0.8255     -0.7073     -0.0009
H               -0.5931      1.2109     -0.9229
H               -0.9055     -1.2934      0.9240
H               -0.9011     -1.2898     -0.9286
H                1.4195      0.1288     -0.0001
Br               3.0553      0.1220     -0.0034
8
P6 HEAT OF FORMATION =  17.76211 KCAL =  74.31660 KJ
H               -0.5744      1.2009      0.9298
C               -0.6347      0.6175      0.0013
C               -0.8257     -0.7154     -0.0013
H               -0.5772      1.2050     -0.9247
H               -0.9084     -1.2990      0.9247
H               -0.9114     -1.2948     -0.9297
H                1.3725      0.1451     -0.0008
Br               3.0593      0.1405      0.0007
8
P7 HEAT OF FORMATION =  22.55890 KCAL =  94.38639 KJ
H               -0.5601      1.1964      0.9310
C               -0.6178      0.6144      0.0016
C               -0.8238     -0.7227     -0.0012
H               -0.5602      1.2003     -0.9254
H               -0.9125     -1.3034      0.9256
H               -0.9125     -1.2995     -0.9305
H                1.3246      0.1614     -0.0002
Br               3.0622      0.1532     -0.0009
8
P8 HEAT OF FORMATION =  27.73615 KCAL =  116.04796 KJ
H               -0.5447      1.1920      0.9319
C               -0.6001      0.6113      0.0015
C               -0.8219     -0.7297     -0.0013
H               -0.5456      1.1959     -0.9265
H               -0.9147     -1.3078      0.9265
H               -0.9156     -1.3038     -0.9315
H                1.2770      0.1761     -0.0000
Br               3.0656      0.1662     -0.0006
8
P9 HEAT OF FORMATION =  33.14043 KCAL =  138.65947 KJ
H               -0.5337      1.1889      0.9329
C               -0.5833      0.6090      0.0014
C               -0.8180     -0.7362     -0.0014
H               -0.5350      1.1930     -0.9276
H               -0.9133     -1.3118      0.9274
H               -0.9145     -1.3079     -0.9325
H                1.2291      0.1937      0.0001
Br               3.0685      0.1713     -0.0004
8
P10 HEAT OF FORMATION =  38.62602 KCAL =  161.61117 KJ
H               -0.5221      1.1853      0.9340
C               -0.5639      0.6058      0.0015
C               -0.8161     -0.7427     -0.0013
H               -0.5219      1.1892     -0.9285
H               -0.9162     -1.3157      0.9284
H               -0.9160     -1.3119     -0.9334
H                1.1829      0.2070      0.0005
Br               3.0733      0.1830     -0.0012
8
P11 HEAT OF FORMATION =  44.06106 KCAL =  184.35135 KJ
H               -0.5136      1.1825      0.9350
C               -0.5448      0.6030      0.0015
C               -0.8128     -0.7489     -0.0013
H               -0.5143      1.1865     -0.9296
H               -0.9151     -1.3197      0.9295
H               -0.9158     -1.3158     -0.9344
H                1.1376      0.2259     -0.0003
Br               3.0787      0.1866     -0.0003
8
P12 HEAT OF FORMATION =  49.32982 KCAL =  206.39582 KJ
H               -0.5016      1.1782      0.9352
C               -0.5230      0.5985      0.0007
C               -0.8121     -0.7554     -0.0017
H               -0.5079      1.1827     -0.9314
H               -0.9159     -1.3239      0.9303
H               -0.9220     -1.3196     -0.9357
H                1.0953      0.2444      0.0004
Br               3.0872      0.1951      0.0022
8
P13 HEAT OF FORMATION =  54.32690 KCAL =  227.30359 KJ
H               -0.5012      1.1752      0.9368
C               -0.5013      0.5943      0.0014
C               -0.8095     -0.7619     -0.0014
H               -0.5020      1.1791     -0.9316
H               -0.9186     -1.3281      0.9315
H               -0.9193     -1.3241     -0.9366
H                1.0551      0.2737      0.0003
Br               3.0968      0.1918     -0.0005
8
P14 HEAT OF FORMATION =  58.97091 KCAL =  246.73411 KJ
H               -0.5014      1.1715      0.9376
C               -0.4775      0.5895      0.0015
C               -0.8070     -0.7682     -0.0014
H               -0.5005      1.1753     -0.9323
H               -0.9201     -1.3322      0.9325
H               -0.9191     -1.3284     -0.9377
H                1.0174      0.3066      0.0015
Br               3.1083      0.1860     -0.0019
8
P15 HEAT OF FORMATION =  63.19455 KCAL =  264.40580 KJ
H               -0.5010      1.1670      0.9380
C               -0.4517      0.5842      0.0012
C               -0.8044     -0.7742     -0.0014
H               -0.5037      1.1713     -0.9327
H               -0.9195     -1.3362      0.9336
H               -0.9222     -1.3319     -0.9386
H                0.9817      0.3407     -0.0012
Br               3.1208      0.1790      0.0011
8
P16 HEAT OF FORMATION =  66.98617 KCAL =  280.26996 KJ
H               -0.5198      1.1666      0.9379
C               -0.4296      0.5843      0.0012
C               -0.7895     -0.7788     -0.0014
H               -0.5224      1.1709     -0.9326
H               -0.9024     -1.3399      0.9345
H               -0.9051     -1.3357     -0.9396
H                0.9444      0.3996     -0.0010
Br               3.1244      0.1331      0.0010
8
P17 HEAT OF FORMATION =  70.43073 KCAL =  294.68197 KJ
H               -0.5351      1.1642      0.9373
C               -0.4033      0.5838      0.0009
C               -0.7758     -0.7824     -0.0014
H               -0.5393      1.1689     -0.9319
H               -0.8890     -1.3423      0.9356
H               -0.8939     -1.3376     -0.9405
H                0.9085      0.4488     -0.0027
Br               3.1279      0.0966      0.0027
8
P18 HEAT OF FORMATION =  73.78108 KCAL =  308.69982 KJ
H               -0.5579      1.1635      0.9358
C               -0.3795      0.5887     -0.0000
C               -0.7510     -0.7843     -0.0016
H               -0.5689      1.1686     -0.9305
H               -0.8580     -1.3440      0.9363
H               -0.8709     -1.3383     -0.9413
H                0.8693      0.5126     -0.0068
Br               3.1168      0.0332      0.0080
8
P19 HEAT OF FORMATION =  77.52790 KCAL =  324.37652 KJ
H               -0.5836      1.1620      0.9340
C               -0.3544      0.5951      0.0002
C               -0.7244     -0.7849     -0.0015
H               -0.5924      1.1667     -0.9285
H               -0.8330     -1.3430      0.9372
H               -0.8417     -1.3384     -0.9419
H                0.8289      0.5701     -0.0053
Br               3.1006     -0.0277      0.0058
8
P20 HEAT OF FORMATION =  82.44158 KCAL =  344.93534 KJ
H               -0.6141      1.1607      0.9313
C               -0.3304      0.6049      0.0012
C               -0.6921     -0.7837     -0.0012
H               -0.6145      1.1641     -0.9268
H               -0.8038     -1.3402      0.9381
H               -0.8034     -1.3370     -0.9425
H                0.7854      0.6287      0.0009
Br               3.0729     -0.0974     -0.0009
