10
Frame 1
C -1.0716 0.5130 -0.9236
C 0.0294 -0.3533 -0.4088
O 0.4366 -1.3734 -1.1042
C 0.5715 -0.0017 0.8332
H -1.3931 0.1609 -1.9341
H -0.7241 1.5720 -0.9990
H -1.9451 0.4699 -0.2281
N 1.5359 -0.6503 1.4333
H 0.1870 0.8800 1.3808
N 2.3734 -1.2173 1.9506
10
Frame 2
C -1.0752 0.5141 -0.9284
C 0.0256 -0.3514 -0.4106
O 0.4371 -1.3698 -1.0981
C 0.5620 0.0093 0.8359
H -1.3961 0.1594 -1.9382
H -0.7270 1.5727 -1.0064
H -1.9491 0.4734 -0.2334
N 1.5476 -0.6589 1.4388
H 0.1882 0.8839 1.3948
N 2.3869 -1.2327 1.9457
10
Frame 3
C -1.0786 0.5153 -0.9335
C 0.0255 -0.3459 -0.4145
O 0.4512 -1.3543 -1.1004
C 0.5489 0.0178 0.8414
H -1.4130 0.1447 -1.9331
H -0.7249 1.5702 -1.0348
H -1.9442 0.4925 -0.2276
N 1.5571 -0.6694 1.4455
H 0.1791 0.8790 1.4166
N 2.3989 -1.2499 1.9403
10
Frame 4
C -1.0822 0.5162 -0.9382
C 0.0228 -0.3427 -0.4164
O 0.4539 -1.3485 -1.0947
C 0.5392 0.0295 0.8446
H -1.4170 0.1410 -1.9360
H -0.7288 1.5707 -1.0445
H -1.9474 0.4963 -0.2318
N 1.5682 -0.6784 1.4507
H 0.1808 0.8833 1.4318
N 2.4105 -1.2674 1.9344
10
Frame 5
C -1.0860 0.5169 -0.9427
C 0.0196 -0.3400 -0.4178
O 0.4547 -1.3444 -1.0878
C 0.5304 0.0422 0.8471
H -1.4182 0.1397 -1.9406
H -0.7341 1.5717 -1.0498
H -1.9525 0.4964 -0.2380
N 1.5792 -0.6872 1.4557
H 0.1856 0.8900 1.4454
N 2.4213 -1.2853 1.9285
10
Frame 6
C -1.0895 0.5178 -0.9473
C 0.0166 -0.3373 -0.4194
O 0.4562 -1.3396 -1.0815
C 0.5208 0.0541 0.8500
H -1.4209 0.1372 -1.9441
H -0.7379 1.5723 -1.0578
H -1.9562 0.4993 -0.2429
N 1.5901 -0.6960 1.4603
H 0.1882 0.8942 1.4607
N 2.4328 -1.3019 1.9221
10
Frame 7
C -1.0932 0.5185 -0.9518
C 0.0139 -0.3343 -0.4207
O 0.4587 -1.3340 -1.0752
C 0.5111 0.0666 0.8532
H -1.4236 0.1339 -1.9474
H -0.7422 1.5728 -1.0660
H -1.9602 0.5018 -0.2479
N 1.6004 -0.7049 1.4652
H 0.1919 0.8994 1.4759
N 2.4433 -1.3198 1.9147
10
Frame 8
C -1.0966 0.5194 -0.9563
C 0.0103 -0.3322 -0.4216
O 0.4582 -1.3309 -1.0672
C 0.5018 0.0795 0.8557
H -1.4236 0.1332 -1.9524
H -0.7468 1.5739 -1.0706
H -1.9656 0.5019 -0.2548
N 1.6111 -0.7135 1.4695
H 0.1968 0.9050 1.4908
N 2.4544 -1.3362 1.9069
10
Frame 9
C -1.1003 0.5198 -0.9605
C 0.0073 -0.3296 -0.4226
O 0.4588 -1.3270 -1.0596
C 0.4928 0.0929 0.8582
H -1.4236 0.1321 -1.9572
H -0.7527 1.5750 -1.0745
H -1.9711 0.5006 -0.2615
N 1.6214 -0.7219 1.4736
H 0.2039 0.9123 1.5045
N 2.4634 -1.3544 1.8996
10
Frame 10
C -1.1037 0.5205 -0.9648
C 0.0041 -0.3274 -0.4233
O 0.4588 -1.3235 -1.0518
C 0.4831 0.1059 0.8609
H -1.4236 0.1310 -1.9618
H -0.7572 1.5760 -1.0793
H -1.9763 0.5007 -0.2681
N 1.6317 -0.7302 1.4776
H 0.2096 0.9179 1.5194
N 2.4736 -1.3709 1.8913
10
Frame 11
C -1.1072 0.5211 -0.9689
C 0.0013 -0.3248 -0.4243
O 0.4597 -1.3192 -1.0443
C 0.4737 0.1193 0.8633
H -1.4241 0.1294 -1.9661
H -0.7624 1.5769 -1.0843
H -1.9812 0.5005 -0.2742
N 1.6417 -0.7385 1.4814
H 0.2161 0.9236 1.5342
N 2.4824 -1.3884 1.8832
10
Frame 12
C -1.1105 0.5217 -0.9729
C -0.0014 -0.3223 -0.4251
O 0.4608 -1.3148 -1.0368
C 0.4640 0.1328 0.8660
H -1.4247 0.1274 -1.9700
H -0.7671 1.5777 -1.0898
H -1.9858 0.5008 -0.2800
N 1.6515 -0.7466 1.4855
H 0.2221 0.9290 1.5491
N 2.4911 -1.4058 1.8740
10
Frame 13
C -1.1137 0.5223 -0.9769
C -0.0043 -0.3200 -0.4258
O 0.4615 -1.3106 -1.0293
C 0.4541 0.1460 0.8685
H -1.4252 0.1257 -1.9739
H -0.7714 1.5785 -1.0952
H -1.9905 0.5014 -0.2859
N 1.6612 -0.7548 1.4892
H 0.2282 0.9335 1.5641
N 2.5001 -1.4221 1.8652
10
Frame 14
C -1.1051 0.5298 -0.9821
C -0.0341 -0.3333 -0.4018
O 0.3786 -1.3521 -0.9671
C 0.4684 0.1576 0.8601
H -1.3588 0.1626 -1.9934
H -0.7674 1.5853 -1.0529
H -2.0095 0.4928 -0.3477
N 1.6740 -0.7624 1.4844
H 0.2060 0.9002 1.5791
N 2.5479 -1.3807 1.8214
10
Frame 15
C -1.0964 0.5373 -0.9873
C -0.0640 -0.3467 -0.3779
O 0.2956 -1.3935 -0.9049
C 0.4827 0.1693 0.8516
H -1.2924 0.1996 -2.0129
H -0.7635 1.5921 -1.0105
H -2.0284 0.4841 -0.4094
N 1.6869 -0.7699 1.4796
H 0.1838 0.8670 1.5942
N 2.5957 -1.3394 1.7775
10
Frame 16
C -1.0878 0.5448 -0.9925
C -0.0938 -0.3600 -0.3539
O 0.2127 -1.4350 -0.8427
C 0.4970 0.1809 0.8432
H -1.2260 0.2365 -2.0324
H -0.7595 1.5989 -0.9682
H -2.0474 0.4755 -0.4712
N 1.6997 -0.7775 1.4748
H 0.1616 0.8337 1.6092
N 2.6435 -1.2980 1.7337
10
Frame 17
C -1.0791 0.5524 -0.9977
C -0.1236 -0.3734 -0.3300
O 0.1297 -1.4764 -0.7805
C 0.5113 0.1926 0.8347
H -1.1596 0.2735 -2.0519
H -0.7555 1.6056 -0.9258
H -2.0664 0.4669 -0.5329
N 1.7126 -0.7850 1.4699
H 0.1393 0.8005 1.6243
N 2.6914 -1.2566 1.6899
10
Frame 18
C -1.0705 0.5599 -1.0029
C -0.1534 -0.3867 -0.3060
O 0.0468 -1.5179 -0.7183
C 0.5256 0.2042 0.8263
H -1.0932 0.3104 -2.0714
H -0.7515 1.6124 -0.8835
H -2.0854 0.4583 -0.5947
N 1.7254 -0.7926 1.4651
H 0.1171 0.7672 1.6393
N 2.7392 -1.2152 1.6461
10
Frame 19
C -1.0618 0.5674 -1.0081
C -0.1833 -0.4001 -0.2821
O -0.0362 -1.5593 -0.6561
C 0.5399 0.2159 0.8178
H -1.0268 0.3474 -2.0909
H -0.7476 1.6192 -0.8411
H -2.1043 0.4496 -0.6564
N 1.7383 -0.8001 1.4603
H 0.0949 0.7340 1.6544
N 2.7870 -1.1739 1.6022
10
Frame 20
C -1.0532 0.5749 -1.0133
C -0.2131 -0.4134 -0.2581
O -0.1191 -1.6008 -0.5939
C 0.5542 0.2275 0.8094
H -0.9604 0.3843 -2.1104
H -0.7436 1.6260 -0.7988
H -2.1233 0.4410 -0.7182
N 1.7511 -0.8077 1.4555
H 0.0727 0.7007 1.6694
N 2.8348 -1.1325 1.5584
10
Frame 21
C -1.0568 0.5757 -1.0154
C -0.2350 -0.4125 -0.2392
O -0.1784 -1.6085 -0.5351
C 0.5681 0.2473 0.7956
H -0.8859 0.4254 -2.1096
H -0.7969 1.6283 -0.7491
H -2.1387 0.3988 -0.7971
N 1.7712 -0.8198 1.4495
H 0.0986 0.7187 1.6644
N 2.8537 -1.1534 1.5360
10
Frame 22
C -1.0609 0.5737 -1.0163
C -0.2651 -0.4100 -0.2070
O -0.2584 -1.6159 -0.4451
C 0.5862 0.2721 0.7796
H -0.7656 0.4924 -2.0912
H -0.8933 1.6230 -0.6739
H -2.1473 0.3271 -0.9272
N 1.7928 -0.8299 1.4405
H 0.1431 0.7599 1.6541
N 2.8684 -1.1925 1.4865
10
Frame 23
C -1.0615 0.5754 -1.0200
C -0.2790 -0.4075 -0.1963
O -0.2897 -1.6135 -0.4113
C 0.5867 0.2849 0.7767
H -0.7330 0.5072 -2.0861
H -0.9143 1.6231 -0.6638
H -2.1474 0.3181 -0.9657
N 1.8087 -0.8425 1.4384
H 0.1437 0.7571 1.6606
N 2.8858 -1.2023 1.4676
10
Frame 24
C -1.0630 0.5768 -1.0231
C -0.2908 -0.4044 -0.1867
O -0.3158 -1.6095 -0.3806
C 0.5883 0.2987 0.7728
H -0.7035 0.5228 -2.0801
H -0.9382 1.6226 -0.6533
H -2.1470 0.3066 -1.0021
N 1.8236 -0.8548 1.4379
H 0.1465 0.7590 1.6643
N 2.8999 -1.2178 1.4511
10
Frame 25
C -1.0644 0.5788 -1.0264
C -0.2988 -0.4013 -0.1817
O -0.3308 -1.6041 -0.3619
C 0.5873 0.3109 0.7712
H -0.6898 0.5294 -2.0783
H -0.9489 1.6241 -0.6523
H -2.1473 0.3044 -1.0212
N 1.8370 -0.8672 1.4398
H 0.1426 0.7558 1.6698
N 2.9132 -1.2308 1.4409
10
Frame 26
C -1.0656 0.5806 -1.0295
C -0.3072 -0.3983 -0.1761
O -0.3462 -1.5987 -0.3424
C 0.5857 0.3229 0.7702
H -0.6747 0.5364 -2.0756
H -0.9604 1.6254 -0.6505
H -2.1471 0.3015 -1.0419
N 1.8504 -0.8793 1.4418
H 0.1391 0.7540 1.6752
N 2.9261 -1.2445 1.4289
10
Frame 27
C -1.0672 0.5825 -1.0325
C -0.3138 -0.3951 -0.1725
O -0.3572 -1.5926 -0.3275
C 0.5841 0.3345 0.7692
H -0.6649 0.5419 -2.0745
H -0.9696 1.6269 -0.6505
H -2.1476 0.3000 -1.0568
N 1.8631 -0.8920 1.4447
H 0.1352 0.7528 1.6794
N 2.9380 -1.2589 1.4210
10
Frame 28
C -1.0686 0.5845 -1.0354
C -0.3197 -0.3921 -0.1695
O -0.3657 -1.5865 -0.3149
C 0.5811 0.3459 0.7694
H -0.6579 0.5450 -2.0741
H -0.9754 1.6289 -0.6525
H -2.1484 0.3007 -1.0684
N 1.8757 -0.9041 1.4481
H 0.1293 0.7508 1.6846
N 2.9495 -1.2731 1.4128
10
Frame 29
C -1.0703 0.5867 -1.0382
C -0.3241 -0.3892 -0.1684
O -0.3703 -1.5803 -0.3070
C 0.5782 0.3568 0.7694
H -0.6560 0.5463 -2.0754
H -0.9782 1.6315 -0.6559
H -2.1500 0.3034 -1.0744
N 1.8875 -0.9166 1.4524
H 0.1228 0.7486 1.6889
N 2.9604 -1.2872 1.4084
