16
Frame 1
N 1.2096 1.9072 -0.3672
N 1.5063 2.9390 -0.0935
H -0.2367 0.4877 -0.6073
C 0.8407 0.5440 -0.6741
H 1.1920 0.3486 -1.7367
C 1.4747 -0.5051 0.2733
N -2.6008 0.3557 1.3274
N -2.5999 -0.0412 2.3875
C -2.4548 0.8028 0.1023
H -2.6596 0.1114 -0.7256
H -2.5209 1.8859 -0.0603
O 2.0916 -0.1606 1.2716
C 1.2251 -1.8914 -0.1917
H 2.1521 -2.2826 -0.6898
H 0.3717 -1.9539 -0.9092
H 1.0087 -2.5477 0.6932
16
Frame 2
N 1.2283 1.9107 -0.3852
N 1.5353 2.9424 -0.1226
H -0.2510 0.5037 -0.6003
C 0.8463 0.5497 -0.6770
H 1.1826 0.3409 -1.7407
C 1.4696 -0.4973 0.2768
N -2.5925 0.3274 1.3210
N -2.5883 -0.0936 2.3713
C -2.4499 0.8001 0.1050
H -2.6715 0.1303 -0.7360
H -2.5062 1.8870 -0.0325
O 2.0826 -0.1519 1.2775
C 1.2153 -1.8849 -0.1824
H 2.1372 -2.2776 -0.6882
H 0.3557 -1.9482 -0.8924
H 1.0064 -2.5389 0.7057
16
Frame 3
N 1.2470 1.9142 -0.4032
N 1.5643 2.9458 -0.1517
H -0.2654 0.5198 -0.5932
C 0.8520 0.5554 -0.6800
H 1.1732 0.3332 -1.7447
C 1.4645 -0.4895 0.2803
N -2.5842 0.2992 1.3145
N -2.5767 -0.1460 2.3550
C -2.4449 0.7974 0.1077
H -2.6834 0.1493 -0.7464
H -2.4914 1.8880 -0.0047
O 2.0736 -0.1432 1.2833
C 1.2054 -1.8784 -0.1731
H 2.1223 -2.2727 -0.6865
H 0.3396 -1.9425 -0.8755
H 1.0042 -2.5302 0.7182
16
Frame 4
N 1.2612 1.9153 -0.4166
N 1.5848 2.9471 -0.1738
H -0.2806 0.5325 -0.5858
C 0.8564 0.5589 -0.6820
H 1.1641 0.3267 -1.7473
C 1.4595 -0.4844 0.2832
N -2.5763 0.2810 1.3108
N -2.5660 -0.1793 2.3443
C -2.4402 0.7959 0.1102
H -2.6920 0.1623 -0.7509
H -2.4814 1.8883 0.0145
O 2.0626 -0.1378 1.2900
C 1.1997 -1.8741 -0.1681
H 2.1135 -2.2668 -0.6881
H 0.3292 -1.9391 -0.8645
H 1.0056 -2.5264 0.7243
16
Frame 5
N 1.2753 1.9164 -0.4301
N 1.6054 2.9483 -0.1960
H -0.2959 0.5452 -0.5784
C 0.8608 0.5624 -0.6841
H 1.1551 0.3201 -1.7500
C 1.4546 -0.4794 0.2861
N -2.5683 0.2629 1.3072
N -2.5553 -0.2127 2.3336
C -2.4356 0.7943 0.1127
H -2.7007 0.1754 -0.7554
H -2.4714 1.8886 0.0336
O 2.0516 -0.1325 1.2966
C 1.1940 -1.8698 -0.1631
H 2.1047 -2.2609 -0.6896
H 0.3189 -1.9358 -0.8536
H 1.0070 -2.5225 0.7305
16
Frame 6
N 1.2899 1.9171 -0.4416
N 1.6267 2.9486 -0.2154
H -0.3108 0.5591 -0.5689
C 0.8652 0.5661 -0.6854
H 1.1451 0.3152 -1.7520
C 1.4497 -0.4750 0.2885
N -2.5598 0.2477 1.3045
N -2.5422 -0.2384 2.3256
C -2.4317 0.7914 0.1145
H -2.7070 0.1828 -0.7578
H -2.4678 1.8865 0.0477
O 2.0405 -0.1288 1.3030
C 1.1885 -1.8658 -0.1599
H 2.0974 -2.2559 -0.6901
H 0.3108 -1.9318 -0.8471
H 1.0053 -2.5189 0.7342
16
Frame 7
N 1.3045 1.9178 -0.4530
N 1.6480 2.9490 -0.2348
H -0.3256 0.5730 -0.5594
C 0.8696 0.5699 -0.6866
H 1.1350 0.3102 -1.7541
C 1.4449 -0.4706 0.2908
N -2.5513 0.2326 1.3019
N -2.5290 -0.2641 2.3176
C -2.4277 0.7884 0.1163
H -2.7132 0.1902 -0.7601
H -2.4641 1.8844 0.0617
O 2.0295 -0.1251 1.3094
C 1.1831 -1.8617 -0.1566
H 2.0901 -2.2510 -0.6906
H 0.3028 -1.9277 -0.8406
H 1.0036 -2.5153 0.7379
16
Frame 8
N 1.3268 1.9157 -0.4730
N 1.6803 2.9464 -0.2683
H -0.3571 0.5934 -0.5402
C 0.8761 0.5736 -0.6889
H 1.1140 0.3001 -1.7576
C 1.4351 -0.4650 0.2946
N -2.5382 0.2139 1.3005
N -2.5116 -0.2988 2.3074
C -2.4197 0.7874 0.1210
H -2.7270 0.2058 -0.7598
H -2.4547 1.8846 0.0853
O 2.0020 -0.1202 1.3239
C 1.1803 -1.8572 -0.1546
H 2.0865 -2.2385 -0.6954
H 0.2965 -1.9265 -0.8336
H 1.0105 -2.5147 0.7387
16
Frame 9
N 1.3427 1.9105 -0.4894
N 1.7022 2.9416 -0.2961
H -0.3900 0.6068 -0.5200
C 0.8808 0.5738 -0.6907
H 1.0923 0.2897 -1.7604
C 1.4257 -0.4628 0.2976
N -2.5275 0.2054 1.3016
N -2.4977 -0.3181 2.3022
C -2.4122 0.7913 0.1259
H -2.7403 0.2226 -0.7564
H -2.4484 1.8894 0.1044
O 1.9712 -0.1185 1.3392
C 1.1846 -1.8561 -0.1564
H 2.0927 -2.2249 -0.7026
H 0.2992 -1.9311 -0.8330
H 1.0247 -2.5197 0.7341
16
Frame 10
N 1.3537 1.9041 -0.5029
N 1.7154 2.9364 -0.3190
H -0.4233 0.6146 -0.5024
C 0.8851 0.5719 -0.6928
H 1.0736 0.2799 -1.7630
C 1.4166 -0.4622 0.2998
N -2.5167 0.2025 1.3042
N -2.4845 -0.3292 2.2993
C -2.4037 0.7979 0.1303
H -2.7549 0.2400 -0.7505
H -2.4418 1.8964 0.1208
O 1.9399 -0.1187 1.3537
C 1.1914 -1.8569 -0.1598
H 2.1019 -2.2115 -0.7110
H 0.3050 -1.9383 -0.8342
H 1.0423 -2.5270 0.7276
16
Frame 11
N 1.3686 1.8962 -0.5167
N 1.7352 2.9288 -0.3423
H -0.4558 0.6278 -0.4769
C 0.8887 0.5705 -0.6942
H 1.0488 0.2713 -1.7654
C 1.4068 -0.4630 0.3007
N -2.5109 0.2044 1.3118
N -2.4795 -0.3275 2.3058
C -2.3973 0.8013 0.1354
H -2.7699 0.2494 -0.7411
H -2.4384 1.9005 0.1312
O 1.9030 -0.1217 1.3689
C 1.2024 -1.8583 -0.1676
H 2.1200 -2.1972 -0.7168
H 0.3207 -1.9468 -0.8473
H 1.0577 -2.5356 0.7147
16
Frame 12
N 1.3807 1.8882 -0.5269
N 1.7482 2.9221 -0.3594
H -0.4871 0.6359 -0.4535
C 0.8938 0.5688 -0.6954
H 1.0271 0.2647 -1.7672
C 1.3979 -0.4647 0.3006
N -2.5020 0.2101 1.3200
N -2.4709 -0.3200 2.3136
C -2.3892 0.8057 0.1387
H -2.7828 0.2548 -0.7303
H -2.4407 1.9053 0.1366
O 1.8688 -0.1272 1.3821
C 1.2125 -1.8602 -0.1759
H 2.1355 -2.1837 -0.7254
H 0.3340 -1.9549 -0.8589
H 1.0741 -2.5449 0.7012
16
Frame 13
N 1.3912 1.8798 -0.5364
N 1.7587 2.9151 -0.3752
H -0.5183 0.6425 -0.4311
C 0.8987 0.5664 -0.6974
H 1.0071 0.2585 -1.7695
C 1.3889 -0.4670 0.2998
N -2.4938 0.2169 1.3289
N -2.4644 -0.3095 2.3231
C -2.3804 0.8107 0.1422
H -2.7946 0.2610 -0.7190
H -2.4424 1.9106 0.1425
O 1.8337 -0.1332 1.3943
C 1.2236 -1.8627 -0.1848
H 2.1520 -2.1704 -0.7339
H 0.3484 -1.9642 -0.8711
H 1.0917 -2.5546 0.6875
16
Frame 14
N 1.3984 1.8697 -0.5443
N 1.7638 2.9070 -0.3873
H -0.5503 0.6444 -0.4094
C 0.9029 0.5622 -0.6995
H 0.9876 0.2518 -1.7715
C 1.3797 -0.4711 0.2983
N -2.4878 0.2291 1.3396
N -2.4634 -0.2920 2.3352
C -2.3713 0.8183 0.1457
H -2.8075 0.2688 -0.7059
H -2.4419 1.9186 0.1462
O 1.7957 -0.1414 1.4062
C 1.2385 -1.8666 -0.1953
H 2.1721 -2.1544 -0.7464
H 0.3658 -1.9774 -0.8833
H 1.1177 -2.5669 0.6716
16
Frame 15
N 1.4086 1.8603 -0.5504
N 1.7716 2.8996 -0.3968
H -0.5793 0.6489 -0.3861
C 0.9095 0.5596 -0.7011
H 0.9681 0.2479 -1.7729
C 1.3707 -0.4752 0.2962
N -2.4806 0.2421 1.3518
N -2.4620 -0.2678 2.3516
C -2.3610 0.8218 0.1474
H -2.8164 0.2669 -0.6918
H -2.4479 1.9222 0.1440
O 1.7584 -0.1521 1.4172
C 1.2510 -1.8697 -0.2069
H 2.1878 -2.1384 -0.7614
H 0.3797 -1.9879 -0.8952
H 1.1418 -2.5783 0.6543
16
Frame 16
N 1.4168 1.8571 -0.5424
N 1.7775 2.8970 -0.3840
H -0.5945 0.6503 -0.3718
C 0.9175 0.5616 -0.6990
H 0.9618 0.2553 -1.7717
C 1.3649 -0.4793 0.2936
N -2.4714 0.2638 1.3648
N -2.4548 -0.2165 2.3752
C -2.3535 0.8118 0.1441
H -2.8110 0.2314 -0.6736
H -2.4642 1.9072 0.1151
O 1.7367 -0.1663 1.4226
C 1.2531 -1.8705 -0.2203
H 2.1888 -2.1274 -0.7812
H 0.3798 -1.9886 -0.9060
H 1.1525 -2.5870 0.6346
16
Frame 17
N 1.4250 1.8540 -0.5344
N 1.7835 2.8944 -0.3712
H -0.6097 0.6518 -0.3575
C 0.9254 0.5635 -0.6968
H 0.9556 0.2627 -1.7704
C 1.3590 -0.4833 0.2910
N -2.4622 0.2854 1.3777
N -2.4476 -0.1652 2.3989
C -2.3461 0.8018 0.1407
H -2.8056 0.1959 -0.6554
H -2.4804 1.8922 0.0862
O 1.7150 -0.1806 1.4280
C 1.2552 -1.8713 -0.2338
H 2.1898 -2.1165 -0.8011
H 0.3799 -1.9892 -0.9168
H 1.1633 -2.5957 0.6150
16
Frame 18
N 1.4332 1.8508 -0.5264
N 1.7894 2.8918 -0.3584
H -0.6249 0.6532 -0.3432
C 0.9334 0.5655 -0.6947
H 0.9493 0.2701 -1.7692
C 1.3532 -0.4874 0.2884
N -2.4530 0.3071 1.3907
N -2.4405 -0.1139 2.4225
C -2.3386 0.7919 0.1373
H -2.8002 0.1604 -0.6372
H -2.4967 1.8772 0.0574
O 1.6933 -0.1948 1.4334
C 1.2573 -1.8721 -0.2472
H 2.1908 -2.1055 -0.8210
H 0.3800 -1.9899 -0.9276
H 1.1740 -2.6043 0.5953
16
Frame 19
N 1.4413 1.8477 -0.5185
N 1.7953 2.8892 -0.3457
H -0.6402 0.6547 -0.3289
C 0.9413 0.5674 -0.6926
H 0.9430 0.2774 -1.7680
C 1.3474 -0.4914 0.2858
N -2.4438 0.3288 1.4037
N -2.4333 -0.0626 2.4461
C -2.3311 0.7819 0.1340
H -2.7947 0.1249 -0.6191
H -2.5130 1.8621 0.0285
O 1.6717 -0.2090 1.4388
C 1.2594 -1.8729 -0.2607
H 2.1918 -2.0946 -0.8408
H 0.3800 -1.9906 -0.9384
H 1.1847 -2.6130 0.5756
16
Frame 20
N 1.4516 1.8455 -0.5007
N 1.8021 2.8872 -0.3172
H -0.6573 0.6546 -0.3134
C 0.9530 0.5716 -0.6880
H 0.9400 0.2924 -1.7652
C 1.3402 -0.4977 0.2818
N -2.4299 0.3649 1.4229
N -2.4202 0.0243 2.4833
C -2.3216 0.7623 0.1275
H -2.7815 0.0601 -0.5902
H -2.5404 1.8328 -0.0244
O 1.6462 -0.2314 1.4449
C 1.2589 -1.8734 -0.2812
H 2.1882 -2.0806 -0.8715
H 0.3755 -1.9879 -0.9543
H 1.1952 -2.6249 0.5457
16
Frame 21
N 1.4619 1.8434 -0.4829
N 1.8088 2.8852 -0.2887
H -0.6745 0.6546 -0.2979
C 0.9646 0.5759 -0.6833
H 0.9371 0.3073 -1.7624
C 1.3330 -0.5039 0.2779
N -2.4159 0.4010 1.4422
N -2.4072 0.1112 2.5205
C -2.3121 0.7427 0.1209
H -2.7682 -0.0046 -0.5613
H -2.5678 1.8035 -0.0773
O 1.6208 -0.2538 1.4509
C 1.2583 -1.8739 -0.3018
H 2.1845 -2.0666 -0.9021
H 0.3710 -1.9852 -0.9702
H 1.2057 -2.6368 0.5157
16
Frame 22
N 1.4646 1.8374 -0.4744
N 1.8040 2.8813 -0.2723
H -0.7012 0.6435 -0.2768
C 0.9746 0.5755 -0.6845
H 0.9255 0.3157 -1.7637
C 1.3226 -0.5109 0.2707
N -2.4041 0.4371 1.4625
N -2.4048 0.1885 2.5497
C -2.2982 0.7318 0.1231
H -2.7645 -0.0418 -0.5240
H -2.5756 1.7823 -0.1073
O 1.5802 -0.2747 1.4544
C 1.2686 -1.8761 -0.3234
H 2.2031 -2.0523 -0.9161
H 0.3899 -1.9891 -1.0029
H 1.2153 -2.6482 0.4850
16
Frame 23
N 1.4745 1.8361 -0.4711
N 1.8112 2.8811 -0.2640
H -0.7250 0.6431 -0.2614
C 0.9880 0.5802 -0.6874
H 0.9173 0.3269 -1.7657
C 1.3130 -0.5110 0.2644
N -2.3868 0.4543 1.4778
N -2.3953 0.2363 2.5704
C -2.2811 0.7155 0.1247
H -2.7506 -0.0802 -0.4953
H -2.5864 1.7549 -0.1270
O 1.5494 -0.2858 1.4556
C 1.2659 -1.8734 -0.3376
H 2.2058 -2.0450 -0.9226
H 0.3940 -1.9830 -1.0263
H 1.2058 -2.6500 0.4655
16
Frame 24
N 1.4792 1.8342 -0.4651
N 1.8108 2.8805 -0.2507
H -0.7508 0.6371 -0.2462
C 0.9995 0.5831 -0.6905
H 0.9102 0.3374 -1.7680
C 1.3029 -0.5132 0.2573
N -2.3694 0.4782 1.4934
N -2.3838 0.2921 2.5909
C -2.2653 0.7015 0.1269
H -2.7393 -0.1169 -0.4617
H -2.5952 1.7287 -0.1489
O 1.5166 -0.2991 1.4558
C 1.2668 -1.8723 -0.3537
H 2.2144 -2.0372 -0.9284
H 0.4043 -1.9795 -1.0543
H 1.1991 -2.6546 0.4432
16
Frame 25
N 1.4763 1.8321 -0.4574
N 1.7990 2.8803 -0.2332
H -0.7779 0.6173 -0.2302
C 1.0092 0.5840 -0.6950
H 0.9038 0.3479 -1.7721
C 1.2926 -0.5175 0.2478
N -2.3522 0.5101 1.5117
N -2.3730 0.3604 2.6137
C -2.2496 0.6880 0.1323
H -2.7355 -0.1500 -0.4204
H -2.5950 1.7035 -0.1717
O 1.4807 -0.3144 1.4534
C 1.2726 -1.8728 -0.3733
H 2.2352 -2.0327 -0.9241
H 0.4291 -1.9753 -1.0972
H 1.1848 -2.6608 0.4158
16
Frame 26
N 1.4796 1.8326 -0.4556
N 1.7983 2.8817 -0.2253
H -0.8028 0.6103 -0.2130
C 1.0199 0.5881 -0.7016
H 0.8979 0.3593 -1.7775
C 1.2822 -0.5172 0.2383
N -2.3343 0.5283 1.5279
N -2.3609 0.4079 2.6327
C -2.2323 0.6715 0.1388
H -2.7213 -0.1846 -0.3856
H -2.6003 1.6744 -0.1853
O 1.4493 -0.3226 1.4492
C 1.2711 -1.8703 -0.3884
H 2.2497 -2.0348 -0.9089
H 0.4508 -1.9639 -1.1397
H 1.1531 -2.6607 0.3941
16
Frame 27
N 1.4787 1.8318 -0.4551
N 1.7918 2.8824 -0.2194
H -0.8286 0.5978 -0.1949
C 1.0291 0.5893 -0.7090
H 0.8956 0.3660 -1.7839
C 1.2717 -0.5181 0.2298
N -2.3198 0.5443 1.5419
N -2.3537 0.4451 2.6480
C -2.2156 0.6616 0.1454
H -2.7147 -0.2035 -0.3574
H -2.5954 1.6573 -0.1924
O 1.4148 -0.3299 1.4455
C 1.2738 -1.8694 -0.4014
H 2.2611 -2.0297 -0.9067
H 0.4662 -1.9622 -1.1664
H 1.1451 -2.6629 0.3762
16
Frame 28
N 1.4763 1.8306 -0.4558
N 1.7839 2.8824 -0.2152
H -0.8551 0.5863 -0.1759
C 1.0369 0.5894 -0.7171
H 0.8946 0.3707 -1.7912
C 1.2608 -0.5195 0.2212
N -2.3069 0.5588 1.5552
N -2.3477 0.4768 2.6620
C -2.1996 0.6544 0.1527
H -2.7097 -0.2167 -0.3318
H -2.5883 1.6445 -0.1959
O 1.3790 -0.3363 1.4411
C 1.2782 -1.8692 -0.4134
H 2.2732 -2.0232 -0.9055
H 0.4820 -1.9634 -1.1901
H 1.1424 -2.6657 0.3599
16
Frame 29
N 1.4700 1.8277 -0.4581
N 1.7709 2.8811 -0.2123
H -0.8815 0.5774 -0.1517
C 1.0423 0.5872 -0.7272
H 0.8954 0.3723 -1.8009
C 1.2487 -0.5232 0.2108
N -2.2974 0.5761 1.5708
N -2.3466 0.5098 2.6779
C -2.1840 0.6510 0.1631
H -2.7050 -0.2245 -0.3050
H -2.5796 1.6360 -0.1966
O 1.3379 -0.3446 1.4344
C 1.2873 -1.8710 -0.4269
H 2.2925 -2.0165 -0.9004
H 0.5070 -1.9680 -1.2193
H 1.1420 -2.6707 0.3412
16
Frame 30
N 1.4625 1.8250 -0.4608
N 1.7558 2.8800 -0.2097
H -0.9080 0.5690 -0.1275
C 1.0473 0.5846 -0.7380
H 0.8985 0.3733 -1.8116
C 1.2365 -0.5269 0.2000
N -2.2882 0.5921 1.5861
N -2.3454 0.5404 2.6932
C -2.1681 0.6480 0.1741
H -2.7009 -0.2304 -0.2792
H -2.5693 1.6291 -0.1950
O 1.2966 -0.3522 1.4266
C 1.2966 -1.8730 -0.4398
H 2.3118 -2.0104 -0.8939
H 0.5327 -1.9730 -1.2476
H 1.1416 -2.6756 0.3231
16
Frame 31
N 1.4547 1.8225 -0.4657
N 1.7409 2.8789 -0.2099
H -0.9323 0.5624 -0.0979
C 1.0518 0.5819 -0.7507
H 0.9052 0.3735 -1.8248
C 1.2233 -0.5303 0.1879
N -2.2818 0.6068 1.6029
N -2.3497 0.5687 2.7096
C -2.1509 0.6453 0.1874
H -2.6933 -0.2355 -0.2537
H -2.5575 1.6225 -0.1912
O 1.2523 -0.3590 1.4165
C 1.3059 -1.8749 -0.4528
H 2.3317 -2.0050 -0.8847
H 0.5609 -1.9778 -1.2777
H 1.1389 -2.6800 0.3048
16
Frame 32
N 1.4449 1.8194 -0.4717
N 1.7227 2.8773 -0.2109
H -0.9554 0.5601 -0.0657
C 1.0556 0.5781 -0.7646
H 0.9150 0.3717 -1.8397
C 1.2092 -0.5346 0.1748
N -2.2770 0.6210 1.6203
N -2.3564 0.5938 2.7263
C -2.1328 0.6448 0.2020
H -2.6835 -0.2377 -0.2297
H -2.5451 1.6182 -0.1853
O 1.2057 -0.3660 1.4047
C 1.3162 -1.8775 -0.4655
H 2.3520 -1.9988 -0.8754
H 0.5900 -1.9847 -1.3066
H 1.1389 -2.6852 0.2870
16
Frame 33
N 1.4303 1.8156 -0.4780
N 1.6959 2.8759 -0.2122
H -0.9778 0.5565 -0.0318
C 1.0586 0.5726 -0.7795
H 0.9290 0.3675 -1.8560
C 1.1949 -0.5404 0.1608
N -2.2732 0.6358 1.6382
N -2.3652 0.6174 2.7432
C -2.1138 0.6472 0.2179
H -2.6763 -0.2336 -0.2072
H -2.5271 1.6194 -0.1766
O 1.1568 -0.3743 1.3909
C 1.3288 -1.8815 -0.4782
H 2.3742 -1.9923 -0.8659
H 0.6220 -1.9942 -1.3348
H 1.1430 -2.6917 0.2693
16
Frame 34
N 1.4152 1.8113 -0.4851
N 1.6677 2.8739 -0.2137
H -1.0006 0.5579 0.0001
C 1.0611 0.5665 -0.7948
H 0.9461 0.3624 -1.8731
C 1.1803 -0.5467 0.1466
N -2.2694 0.6487 1.6560
N -2.3743 0.6366 2.7597
C -2.0949 0.6514 0.2338
H -2.6676 -0.2275 -0.1870
H -2.5111 1.6229 -0.1650
O 1.1076 -0.3825 1.3759
C 1.3417 -1.8857 -0.4898
H 2.3953 -1.9849 -0.8576
H 0.6526 -2.0056 -1.3598
H 1.1503 -2.6985 0.2536
16
Frame 35
N 1.3977 1.8068 -0.4926
N 1.6360 2.8716 -0.2159
H -1.0230 0.5614 0.0325
C 1.0632 0.5597 -0.8105
H 0.9659 0.3559 -1.8905
C 1.1654 -0.5533 0.1320
N -2.2656 0.6603 1.6737
N -2.3823 0.6525 2.7760
C -2.0755 0.6569 0.2500
H -2.6590 -0.2185 -0.1685
H -2.4944 1.6287 -0.1517
O 1.0580 -0.3910 1.3594
C 1.3550 -1.8904 -0.5007
H 2.4169 -1.9776 -0.8474
H 0.6846 -2.0176 -1.3845
H 1.1571 -2.7052 0.2389
