20
Frame 1
C 1.5514 -0.2470 0.2261
O 0.4538 0.2673 -0.1379
N 2.6772 0.2872 -0.1943
C 2.6688 1.5046 -1.0331
H 1.6541 1.8326 -1.1659
H 3.1109 1.2776 -1.9939
H 3.2461 2.2762 -0.5412
C 4.0052 -0.2427 0.1612
H 4.0011 -1.3211 0.1863
H 4.3285 0.1416 1.1207
H 4.7052 0.0760 -0.5961
C 1.5986 -1.4612 1.1179
H 0.6255 -1.6435 1.5407
H 2.3057 -1.3218 1.9229
H 1.8861 -2.3284 0.5347
P -1.4764 -0.1803 0.1175
Cl -1.0205 0.8401 1.9105
Cl -0.8690 -1.6347 -1.3002
Cl -1.8766 1.3578 -1.0898
O -2.6306 -0.9179 0.6273
20
Frame 2
C 1.5285 -0.2668 0.2385
O 0.4193 0.2440 -0.1238
N 2.6413 0.2787 -0.1864
C 2.6265 1.4983 -1.0258
H 1.6106 1.8198 -1.1651
H 3.0769 1.2725 -1.9826
H 3.1958 2.2719 -0.5284
C 3.9794 -0.2380 0.1625
H 3.9787 -1.3148 0.2191
H 4.3135 0.1775 1.1049
H 4.6646 0.0617 -0.6155
C 1.5792 -1.4806 1.1266
H 0.6108 -1.6555 1.5643
H 2.2992 -1.3482 1.9208
H 1.8488 -2.3483 0.5357
P -1.4304 -0.1730 0.1144
Cl -1.0199 0.8782 1.9246
Cl -0.8681 -1.6404 -1.3413
Cl -1.8756 1.3568 -1.0894
O -2.5599 -0.9360 0.6455
20
Frame 3
C 1.5098 -0.2862 0.2523
O 0.3925 0.2231 -0.1097
N 2.6105 0.2687 -0.1773
C 2.5873 1.4898 -1.0180
H 1.5707 1.8103 -1.1528
H 3.0339 1.2626 -1.9760
H 3.1583 2.2627 -0.5219
C 3.9560 -0.2389 0.1640
H 3.9595 -1.3147 0.2330
H 4.2949 0.1905 1.0980
H 4.6311 0.0553 -0.6246
C 1.5596 -1.4990 1.1380
H 0.5954 -1.6624 1.5903
H 2.2930 -1.3762 1.9210
H 1.8080 -2.3688 0.5406
P -1.3912 -0.1666 0.1121
Cl -1.0207 0.9211 1.9353
Cl -0.8665 -1.6412 -1.3868
Cl -1.8790 1.3534 -1.0872
O -2.4847 -0.9631 0.6696
20
Frame 4
C 1.4972 -0.3057 0.2670
O 0.3753 0.2037 -0.0953
N 2.5875 0.2570 -0.1667
C 2.5534 1.4792 -1.0088
H 1.5356 1.7987 -1.1351
H 2.9923 1.2506 -1.9697
H 3.1281 2.2516 -0.5166
C 3.9389 -0.2424 0.1665
H 3.9458 -1.3173 0.2464
H 4.2831 0.1988 1.0927
H 4.6046 0.0464 -0.6319
C 1.5419 -1.5185 1.1503
H 0.5824 -1.6642 1.6196
H 2.2918 -1.4113 1.9194
H 1.7610 -2.3913 0.5453
P -1.3611 -0.1622 0.1116
Cl -1.0239 0.9682 1.9402
Cl -0.8661 -1.6353 -1.4351
Cl -1.8871 1.3472 -1.0831
O -2.4070 -0.9983 0.6999
20
Frame 5
C 1.4905 -0.3246 0.2818
O 0.3663 0.1863 -0.0813
N 2.5729 0.2440 -0.1551
C 2.5282 1.4669 -0.9980
H 1.5095 1.7869 -1.1133
H 2.9565 1.2368 -1.9632
H 3.1087 2.2383 -0.5115
C 3.9288 -0.2488 0.1700
H 3.9381 -1.3226 0.2622
H 4.2799 0.2047 1.0875
H 4.5855 0.0323 -0.6385
C 1.5271 -1.5383 1.1622
H 0.5733 -1.6616 1.6508
H 2.2956 -1.4522 1.9147
H 1.7100 -2.4141 0.5489
P -1.3384 -0.1602 0.1135
Cl -1.0304 1.0172 1.9379
Cl -0.8681 -1.6222 -1.4834
Cl -1.9005 1.3380 -1.0769
O -2.3278 -1.0388 0.7342
20
Frame 6
C 1.4880 -0.3422 0.2957
O 0.3630 0.1716 -0.0683
N 2.5651 0.2301 -0.1427
C 2.5125 1.4539 -0.9858
H 1.4937 1.7772 -1.0886
H 2.9280 1.2215 -1.9560
H 3.1017 2.2227 -0.5061
C 3.9245 -0.2582 0.1747
H 3.9345 -1.3306 0.2809
H 4.2837 0.2081 1.0824
H 4.5725 0.0123 -0.6443
C 1.5144 -1.5576 1.1727
H 0.5675 -1.6567 1.6810
H 2.3020 -1.4965 1.9073
H 1.6572 -2.4354 0.5510
P -1.3202 -0.1596 0.1172
Cl -1.0403 1.0653 1.9293
Cl -0.8726 -1.6034 -1.5294
Cl -1.9194 1.3261 -1.0692
O -2.2468 -1.0808 0.7701
20
Frame 7
C 1.4880 -0.3582 0.3082
O 0.3636 0.1606 -0.0569
N 2.5625 0.2156 -0.1299
C 2.5056 1.4406 -0.9724
H 1.4879 1.7709 -1.0613
H 2.9063 1.2053 -1.9481
H 3.1066 2.2047 -0.4999
C 3.9240 -0.2710 0.1807
H 3.9328 -1.3415 0.3029
H 4.2925 0.2089 1.0774
H 4.5638 -0.0141 -0.6491
C 1.5023 -1.5764 1.1809
H 0.5623 -1.6526 1.7064
H 2.3064 -1.5414 1.8986
H 1.6062 -2.4543 0.5510
P -1.3041 -0.1595 0.1225
Cl -1.0530 1.1112 1.9156
Cl -0.8786 -1.5808 -1.5717
Cl -1.9433 1.3119 -1.0603
O -2.1634 -1.1218 0.8058
20
Frame 8
C 1.4892 -0.3726 0.3185
O 0.3671 0.1548 -0.0477
N 2.5637 0.2005 -0.1170
C 2.5072 1.4276 -0.9577
H 1.4922 1.7691 -1.0315
H 2.8910 1.1887 -1.9392
H 3.1233 2.1839 -0.4927
C 3.9258 -0.2878 0.1880
H 3.9306 -1.3559 0.3291
H 4.3049 0.2065 1.0722
H 4.5582 -0.0486 -0.6528
C 1.4896 -1.5947 1.1855
H 0.5538 -1.6531 1.7216
H 2.3045 -1.5838 1.8912
H 1.5621 -2.4704 0.5479
P -1.2889 -0.1587 0.1291
Cl -1.0680 1.1540 1.8984
Cl -0.8851 -1.5561 -1.6098
Cl -1.9726 1.2956 -1.0506
O -2.0776 -1.1599 0.8401
20
Frame 9
C 1.4907 -0.3849 0.3258
O 0.3727 0.1555 -0.0410
N 2.5680 0.1847 -0.1043
C 2.5174 1.4151 -0.9414
H 1.5071 1.7729 -0.9987
H 2.8823 1.1726 -1.9292
H 3.1528 2.1598 -0.4837
C 3.9286 -0.3099 0.1964
H 3.9255 -1.3745 0.3607
H 4.3205 0.2004 1.0659
H 4.5542 -0.0942 -0.6560
C 1.4753 -1.6128 1.1849
H 0.5382 -1.6635 1.7193
H 2.2919 -1.6195 1.8886
H 1.5332 -2.4842 0.5394
P -1.2742 -0.1560 0.1369
Cl -1.0845 1.1933 1.8790
Cl -0.8903 -1.5307 -1.6429
Cl -2.0078 1.2769 -1.0402
O -1.9904 -1.1934 0.8721
20
Frame 10
C 1.4917 -0.3951 0.3291
O 0.3799 0.1640 -0.0360
N 2.5747 0.1685 -0.0927
C 2.5366 1.4040 -0.9232
H 1.5333 1.7832 -0.9632
H 2.8809 1.1587 -1.9178
H 3.1946 2.1324 -0.4718
C 3.9312 -0.3384 0.2050
H 3.9151 -1.3977 0.3980
H 4.3391 0.1893 1.0565
H 4.5502 -0.1539 -0.6595
C 1.4603 -1.6314 1.1766
H 0.5123 -1.6910 1.6898
H 2.2639 -1.6429 1.8951
H 1.5325 -2.4962 0.5238
P -1.2600 -0.1499 0.1465
Cl -1.1024 1.2289 1.8586
Cl -0.8916 -1.5065 -1.6704
Cl -2.0491 1.2554 -1.0295
O -1.9052 -1.2201 0.9006
20
Frame 11
C 1.4918 -0.4041 0.3270
O 0.3874 0.1800 -0.0299
N 2.5825 0.1516 -0.0839
C 2.5630 1.3947 -0.9032
H 1.5690 1.7987 -0.9261
H 2.8873 1.1498 -1.9046
H 3.2450 2.1027 -0.4550
C 3.9323 -0.3739 0.2108
H 3.8982 -1.4256 0.4384
H 4.3606 0.1721 1.0404
H 4.5437 -0.2284 -0.6668
C 1.4469 -1.6524 1.1581
H 0.4772 -1.7435 1.6223
H 2.2164 -1.6499 1.9141
H 1.5748 -2.5074 0.5015
P -1.2475 -0.1383 0.1595
Cl -1.1217 1.2611 1.8390
Cl -0.8852 -1.4854 -1.6921
Cl -2.0952 1.2310 -1.0190
O -1.8290 -1.2376 0.9241
20
Frame 12
C 1.4905 -0.4143 0.3183
O 0.3934 0.2013 -0.0163
N 2.5888 0.1336 -0.0814
C 2.5905 1.3878 -0.8832
H 1.6051 1.8129 -0.8944
H 2.9034 1.1496 -1.8898
H 3.2903 2.0750 -0.4301
C 3.9311 -0.4135 0.2080
H 3.8774 -1.4547 0.4753
H 4.3836 0.1521 1.0113
H 4.5316 -0.3126 -0.6836
C 1.4368 -1.6789 1.1265
H 0.4404 -1.8224 1.5129
H 2.1466 -1.6466 1.9397
H 1.6594 -2.5176 0.4754
P -1.2383 -0.1182 0.1802
Cl -1.1434 1.2912 1.8233
Cl -0.8653 -1.4711 -1.7096
Cl -2.1399 1.2045 -1.0102
O -1.7717 -1.2440 0.9416
20
Frame 13
C 1.4862 -0.4269 0.3044
O 0.3946 0.2238 0.0081
N 2.5895 0.1156 -0.0871
C 2.6092 1.3829 -0.8672
H 1.6279 1.8171 -0.8799
H 2.9282 1.1573 -1.8748
H 3.3118 2.0562 -0.3979
C 3.9264 -0.4503 0.1920
H 3.8581 -1.4787 0.5006
H 4.4050 0.1355 0.9651
H 4.5108 -0.3935 -0.7143
C 1.4256 -1.7106 1.0831
H 0.4110 -1.9031 1.3915
H 2.0708 -1.6567 1.9490
H 1.7369 -2.5271 0.4423
P -1.2336 -0.0886 0.2123
Cl -1.1682 1.3204 1.8168
Cl -0.8289 -1.4691 -1.7277
Cl -2.1724 1.1783 -1.0046
O -1.7372 -1.2401 0.9533
20
Frame 14
C 1.4777 -0.4396 0.2893
O 0.3900 0.2432 0.0373
N 2.5829 0.1002 -0.0980
C 2.6150 1.3792 -0.8579
H 1.6332 1.8115 -0.8841
H 2.9538 1.1675 -1.8620
H 3.3074 2.0471 -0.3660
C 3.9172 -0.4800 0.1669
H 3.8406 -1.4967 0.5095
H 4.4192 0.1220 0.9122
H 4.4833 -0.4585 -0.7526
C 1.4108 -1.7411 1.0375
H 0.3877 -1.9637 1.2914
H 2.0111 -1.6837 1.9362
H 1.7752 -2.5372 0.4005
P -1.2329 -0.0530 0.2527
Cl -1.1927 1.3485 1.8217
Cl -0.7825 -1.4806 -1.7515
Cl -2.1877 1.1550 -1.0015
O -1.7196 -1.2302 0.9601
20
Frame 15
C 1.4658 -0.4513 0.2745
O 0.3813 0.2586 0.0653
N 2.5712 0.0873 -0.1108
C 2.6119 1.3762 -0.8534
H 1.6281 1.8021 -0.8976
H 2.9745 1.1773 -1.8516
H 3.2888 2.0429 -0.3385
C 3.9043 -0.5043 0.1389
H 3.8233 -1.5115 0.5069
H 4.4256 0.1091 0.8612
H 4.4529 -0.5089 -0.7913
C 1.3939 -1.7675 0.9955
H 0.3668 -2.0074 1.2133
H 1.9657 -1.7151 1.9137
H 1.7880 -2.5470 0.3572
P -1.2347 -0.0167 0.2951
Cl -1.2146 1.3760 1.8345
Cl -0.7324 -1.5001 -1.7799
Cl -2.1916 1.1345 -0.9993
O -1.7104 -1.2176 0.9638
20
Frame 16
C 1.4515 -0.4624 0.2597
O 0.3707 0.2713 0.0916
N 2.5566 0.0757 -0.1247
C 2.6037 1.3733 -0.8514
H 1.6175 1.7912 -0.9151
H 2.9908 1.1867 -1.8427
H 3.2631 2.0403 -0.3145
C 3.8889 -0.5259 0.1095
H 3.8051 -1.5249 0.4980
H 4.4275 0.0959 0.8116
H 4.4206 -0.5521 -0.8301
C 1.3756 -1.7908 0.9568
H 0.3461 -2.0413 1.1484
H 1.9280 -1.7462 1.8879
H 1.7879 -2.5566 0.3147
P -1.2382 0.0179 0.3364
Cl -1.2345 1.4036 1.8517
Cl -0.6798 -1.5225 -1.8098
Cl -2.1899 1.1157 -0.9970
O -1.7055 -1.2040 0.9665
20
Frame 17
C 1.4355 -0.4734 0.2447
O 0.3594 0.2822 0.1170
N 2.5400 0.0643 -0.1396
C 2.5919 1.3701 -0.8508
H 1.6037 1.7794 -0.9342
H 3.0034 1.1962 -1.8344
H 3.2326 2.0380 -0.2926
C 3.8712 -0.5471 0.0778
H 3.7856 -1.5384 0.4847
H 4.4269 0.0814 0.7603
H 4.3856 -0.5927 -0.8706
C 1.3559 -1.8122 0.9202
H 0.3250 -2.0695 1.0923
H 1.8948 -1.7766 1.8601
H 1.7799 -2.5664 0.2730
P -1.2429 0.0496 0.3753
Cl -1.2534 1.4316 1.8710
Cl -0.6236 -1.5447 -1.8387
Cl -2.1854 1.0985 -0.9944
O -1.7035 -1.1898 0.9699
20
Frame 18
C 1.4179 -0.4847 0.2293
O 0.3481 0.2918 0.1426
N 2.5218 0.0525 -0.1561
C 2.5775 1.3665 -0.8512
H 1.5874 1.7666 -0.9547
H 3.0135 1.2062 -1.8263
H 3.1980 2.0352 -0.2716
C 3.8516 -0.5692 0.0425
H 3.7650 -1.5526 0.4674
H 4.4254 0.0649 0.7044
H 4.3467 -0.6342 -0.9148
C 1.3351 -1.8327 0.8853
H 0.3033 -2.0936 1.0435
H 1.8651 -1.8062 1.8311
H 1.7660 -2.5768 0.2322
P -1.2483 0.0779 0.4113
Cl -1.2721 1.4595 1.8905
Cl -0.5632 -1.5647 -1.8644
Cl -2.1799 1.0830 -0.9915
O -1.7042 -1.1755 0.9755
20
Frame 19
C 1.3993 -0.4967 0.2135
O 0.3372 0.2999 0.1688
N 2.5024 0.0399 -0.1743
C 2.5606 1.3620 -0.8526
H 1.5690 1.7527 -0.9761
H 3.0212 1.2166 -1.8187
H 3.1600 2.0314 -0.2519
C 3.8301 -0.5929 0.0026
H 3.7433 -1.5684 0.4454
H 4.4239 0.0457 0.6423
H 4.3034 -0.6776 -0.9642
C 1.3139 -1.8522 0.8528
H 0.2816 -2.1146 1.0025
H 1.8389 -1.8340 1.8021
H 1.7479 -2.5882 0.1935
P -1.2544 0.1026 0.4441
Cl -1.2910 1.4867 1.9087
Cl -0.4982 -1.5806 -1.8857
Cl -2.1742 1.0695 -0.9885
O -1.7078 -1.1613 0.9836
20
Frame 20
C 1.3800 -0.5097 0.1976
O 0.3268 0.3062 0.1957
N 2.4821 0.0260 -0.1941
C 2.5415 1.3563 -0.8554
H 1.5489 1.7372 -0.9988
H 3.0261 1.2264 -1.8118
H 3.1190 2.0262 -0.2339
C 3.8070 -0.6185 -0.0423
H 3.7214 -1.5852 0.4195
H 4.4229 0.0241 0.5718
H 4.2548 -0.7242 -1.0192
C 1.2931 -1.8706 0.8244
H 0.2606 -2.1330 0.9706
H 1.8163 -1.8584 1.7754
H 1.7273 -2.6009 0.1601
P -1.2610 0.1237 0.4739
Cl -1.3102 1.5125 1.9249
Cl -0.4292 -1.5912 -1.9020
Cl -2.1686 1.0579 -0.9851
O -1.7140 -1.1476 0.9939
20
Frame 21
C 1.3601 -0.5238 0.1817
O 0.3171 0.3101 0.2228
N 2.4611 0.0111 -0.2151
C 2.5204 1.3487 -0.8602
H 1.5270 1.7198 -1.0229
H 3.0277 1.2345 -1.8067
H 3.0758 2.0192 -0.2193
C 3.7825 -0.6458 -0.0921
H 3.7000 -1.6025 0.3908
H 4.4228 0.0007 0.4923
H 4.2003 -0.7747 -1.0795
C 1.2733 -1.8877 0.8022
H 0.2410 -2.1495 0.9484
H 1.7964 -1.8770 1.7537
H 1.7070 -2.6151 0.1355
P -1.2678 0.1415 0.5008
Cl -1.3295 1.5366 1.9387
Cl -0.3570 -1.5956 -1.9138
Cl -2.1635 1.0480 -0.9817
O -1.7228 -1.1349 1.0056
20
Frame 22
C 1.3401 -0.5392 0.1661
O 0.3078 0.3116 0.2498
N 2.4397 -0.0049 -0.2367
C 2.4974 1.3388 -0.8677
H 1.5034 1.6999 -1.0492
H 3.0257 1.2395 -1.8042
H 3.0308 2.0107 -0.2096
C 3.7567 -0.6745 -0.1455
H 3.6801 -1.6190 0.3616
H 4.4232 -0.0234 0.4033
H 4.1396 -0.8299 -1.1433
C 1.2549 -1.9030 0.7872
H 0.2230 -2.1647 0.9349
H 1.7775 -1.8880 1.7396
H 1.6899 -2.6308 0.1229
P -1.2748 0.1564 0.5252
Cl -1.3486 1.5587 1.9502
Cl -0.2829 -1.5935 -1.9215
Cl -2.1587 1.0395 -0.9781
O -1.7336 -1.1232 1.0177
20
Frame 23
C 1.3250 -0.5516 0.1543
O 0.3010 0.3112 0.2696
N 2.4237 -0.0172 -0.2529
C 2.4790 1.3297 -0.8756
H 1.4847 1.6831 -1.0704
H 3.0215 1.2403 -1.8049
H 2.9964 2.0035 -0.2068
C 3.7366 -0.6966 -0.1870
H 3.6667 -1.6299 0.3416
H 4.4239 -0.0411 0.3299
H 4.0896 -0.8753 -1.1920
C 1.2422 -1.9132 0.7808
H 0.2107 -2.1756 0.9296
H 1.7632 -1.8910 1.7342
H 1.6801 -2.6434 0.1217
P -1.2800 0.1659 0.5420
Cl -1.3625 1.5738 1.9577
Cl -0.2267 -1.5880 -1.9251
Cl -2.1554 1.0339 -0.9754
O -1.7429 -1.1153 1.0267
