14
P1 HEAT OF FORMATION =  4.48901 KCAL =  18.78202 KJ
C                0.6289     -1.9482     -0.0873
C                0.5951     -0.5126      0.3956
C                0.5719      0.5255     -0.4130
H                0.6204     -0.4050      1.4925
H                0.5583      0.4181     -1.5101
C                0.6003      1.9615      0.0690
H                0.5188     -2.0047     -1.1957
H               -0.1975     -2.5263      0.3910
H                1.6039     -2.4085      0.2041
H               -0.2644      2.5205     -0.3620
H                1.5469      2.4440     -0.2755
H                0.5506      2.0156      1.1819
Br              -4.8879     -0.0556      0.0710
Br              -2.4453     -0.0242      0.0387
14
P2 HEAT OF FORMATION =  5.69975 KCAL =  23.84775 KJ
C                0.6287     -1.9491     -0.0872
C                0.5901     -0.5144      0.3963
C                0.5661      0.5264     -0.4158
H                0.6145     -0.4047      1.4927
H                0.5540      0.4168     -1.5125
C                0.5952      1.9617      0.0666
H                0.5281     -2.0050     -1.1966
H               -0.2012     -2.5285      0.3836
H                1.6016     -2.4091      0.2121
H               -0.2634      2.5245     -0.3718
H                1.5466      2.4406     -0.2697
H                0.5362      2.0160      1.1790
Br              -4.8791     -0.0517      0.0824
Br              -2.4174     -0.0234      0.0409
14
P3 HEAT OF FORMATION =  6.96852 KCAL =  29.15627 KJ
C                0.6271     -1.9497     -0.0862
C                0.5847     -0.5160      0.3980
C                0.5595      0.5277     -0.4176
H                0.6106     -0.4041      1.4939
H                0.5472      0.4158     -1.5138
C                0.5918      1.9622      0.0650
H                0.5206     -2.0058     -1.1950
H               -0.1971     -2.5337      0.3890
H                1.6040     -2.4051      0.2074
H               -0.2609      2.5296     -0.3789
H                1.5479      2.4365     -0.2648
H                0.5257      2.0167      1.1771
Br              -4.8710     -0.0503      0.0821
Br              -2.3900     -0.0237      0.0438
14
P4 HEAT OF FORMATION =  8.28894 KCAL =  34.68091 KJ
C                0.6239     -1.9499     -0.0849
C                0.5786     -0.5170      0.3997
C                0.5531      0.5295     -0.4193
H                0.6061     -0.4028      1.4952
H                0.5408      0.4154     -1.5150
C                0.5899      1.9632      0.0639
H                0.5009     -2.0069     -1.1920
H               -0.1880     -2.5406      0.4029
H                1.6089     -2.3975      0.1935
H               -0.2513      2.5381     -0.3923
H                1.5548      2.4293     -0.2520
H                0.5084      2.0182      1.1749
Br              -4.8631     -0.0548      0.0829
Br              -2.3630     -0.0240      0.0426
14
P5 HEAT OF FORMATION =  9.65633 KCAL =  40.40206 KJ
C                0.6223     -1.9506     -0.0837
C                0.5719     -0.5186      0.4014
C                0.5470      0.5307     -0.4211
H                0.5988     -0.4022      1.4964
H                0.5371      0.4145     -1.5164
C                0.5867      1.9635      0.0626
H                0.4911     -2.0084     -1.1897
H               -0.1815     -2.5470      0.4103
H                1.6124     -2.3918      0.1869
H               -0.2486      2.5427     -0.3987
H                1.5558      2.4254     -0.2470
H                0.4983      2.0187      1.1730
Br              -4.8553     -0.0533      0.0859
Br              -2.3360     -0.0235      0.0401
14
P6 HEAT OF FORMATION =  11.06444 KCAL =  46.29357 KJ
C                0.6201     -1.9511     -0.0827
C                0.5658     -0.5200      0.4031
C                0.5403      0.5322     -0.4229
H                0.5939     -0.4014      1.4976
H                0.5310      0.4139     -1.5178
C                0.5840      1.9642      0.0611
H                0.4789     -2.0096     -1.1875
H               -0.1752     -2.5530      0.4188
H                1.6157     -2.3859      0.1786
H               -0.2424      2.5495     -0.4088
H                1.5596      2.4194     -0.2383
H                0.4846      2.0201      1.1708
Br              -4.8475     -0.0549      0.0872
Br              -2.3091     -0.0235      0.0407
14
P7 HEAT OF FORMATION =  12.50924 KCAL =  52.33864 KJ
C                0.6183     -1.9516     -0.0815
C                0.5594     -0.5215      0.4048
C                0.5332      0.5336     -0.4246
H                0.5890     -0.4007      1.4988
H                0.5246      0.4131     -1.5191
C                0.5812      1.9648      0.0598
H                0.4669     -2.0110     -1.1850
H               -0.1677     -2.5594      0.4275
H                1.6195     -2.3795      0.1701
H               -0.2367      2.5559     -0.4176
H                1.5627      2.4134     -0.2307
H                0.4722      2.0214      1.1685
Br              -4.8400     -0.0547      0.0875
Br              -2.2824     -0.0238      0.0414
14
P8 HEAT OF FORMATION =  13.98562 KCAL =  58.51577 KJ
C                0.6163     -1.9520     -0.0804
C                0.5528     -0.5230      0.4068
C                0.5260      0.5350     -0.4260
H                0.5844     -0.4002      1.5004
H                0.5182      0.4123     -1.5201
C                0.5786      1.9654      0.0585
H                0.4560     -2.0123     -1.1828
H               -0.1612     -2.5655      0.4352
H                1.6227     -2.3733      0.1627
H               -0.2325      2.5615     -0.4240
H                1.5644      2.4082     -0.2258
H                0.4629      2.0229      1.1664
Br              -4.8327     -0.0551      0.0865
Br              -2.2558     -0.0237      0.0425
14
P9 HEAT OF FORMATION =  15.48620 KCAL =  64.79421 KJ
C                0.6150     -1.9526     -0.0793
C                0.5453     -0.5245      0.4081
C                0.5184      0.5364     -0.4280
H                0.5776     -0.3995      1.5013
H                0.5127      0.4117     -1.5217
C                0.5758      1.9658      0.0572
H                0.4465     -2.0143     -1.1803
H               -0.1535     -2.5722      0.4424
H                1.6264     -2.3662      0.1557
H               -0.2264      2.5680     -0.4330
H                1.5677      2.4016     -0.2178
H                0.4501      2.0240      1.1641
Br              -4.8258     -0.0542      0.0901
Br              -2.2298     -0.0240      0.0410
14
P10 HEAT OF FORMATION =  17.00714 KCAL =  71.15782 KJ
C                0.6134     -1.9531     -0.0783
C                0.5381     -0.5260      0.4097
C                0.5106      0.5378     -0.4297
H                0.5724     -0.3989      1.5025
H                0.5064      0.4110     -1.5231
C                0.5731      1.9663      0.0557
H                0.4363     -2.0160     -1.1779
H               -0.1458     -2.5785      0.4497
H                1.6299     -2.3592      0.1482
H               -0.2192      2.5748     -0.4427
H                1.5712      2.3945     -0.2090
H                0.4366      2.0257      1.1613
Br              -4.8190     -0.0542      0.0921
Br              -2.2038     -0.0241      0.0414
14
P11 HEAT OF FORMATION =  18.54173 KCAL =  77.57854 KJ
C                0.6120     -1.9535     -0.0772
C                0.5305     -0.5276      0.4114
C                0.5024      0.5392     -0.4314
H                0.5668     -0.3984      1.5038
H                0.5000      0.4103     -1.5244
C                0.5706      1.9667      0.0544
H                0.4272     -2.0178     -1.1756
H               -0.1385     -2.5849      0.4563
H                1.6333     -2.3521      0.1417
H               -0.2133      2.5811     -0.4502
H                1.5738      2.3878     -0.2027
H                0.4260      2.0275      1.1589
Br              -4.8125     -0.0540      0.0934
Br              -2.1781     -0.0244      0.0417
14
P12 HEAT OF FORMATION =  20.08350 KCAL =  84.02932 KJ
C                0.6105     -1.9539     -0.0761
C                0.5224     -0.5291      0.4131
C                0.4939      0.5407     -0.4329
H                0.5613     -0.3978      1.5050
H                0.4933      0.4098     -1.5257
C                0.5684      1.9672      0.0531
H                0.4184     -2.0197     -1.1731
H               -0.1312     -2.5913      0.4628
H                1.6365     -2.3446      0.1355
H               -0.2077      2.5874     -0.4565
H                1.5763      2.3810     -0.1976
H                0.4172      2.0292      1.1567
Br              -4.8064     -0.0544      0.0940
Br              -2.1528     -0.0244      0.0417
14
P13 HEAT OF FORMATION =  21.62608 KCAL =  90.48344 KJ
C                0.6090     -1.9542     -0.0750
C                0.5142     -0.5307      0.4147
C                0.4852      0.5421     -0.4345
H                0.5555     -0.3973      1.5063
H                0.4870      0.4092     -1.5270
C                0.5661      1.9677      0.0518
H                0.4100     -2.0217     -1.1707
H               -0.1238     -2.5976      0.4689
H                1.6396     -2.3370      0.1295
H               -0.2016      2.5938     -0.4634
H                1.5790      2.3739     -0.1920
H                0.4077      2.0311      1.1543
Br              -4.8003     -0.0548      0.0953
Br              -2.1276     -0.0244      0.0418
14
P14 HEAT OF FORMATION =  23.16317 KCAL =  96.91462 KJ
C                0.6077     -1.9545     -0.0740
C                0.5055     -0.5322      0.4163
C                0.4759      0.5436     -0.4360
H                0.5499     -0.3968      1.5076
H                0.4799      0.4088     -1.5282
C                0.5641      1.9681      0.0505
H                0.4018     -2.0237     -1.1683
H               -0.1160     -2.6039      0.4749
H                1.6428     -2.3288      0.1236
H               -0.1947      2.6006     -0.4702
H                1.5821      2.3659     -0.1864
H                0.3986      2.0332      1.1520
Br              -4.7948     -0.0555      0.0963
Br              -2.1028     -0.0247      0.0419
14
P15 HEAT OF FORMATION =  24.68885 KCAL =  103.29809 KJ
C                0.6065     -1.9547     -0.0729
C                0.4964     -0.5339      0.4180
C                0.4664      0.5451     -0.4375
H                0.5438     -0.3965      1.5089
H                0.4731      0.4083     -1.5294
C                0.5622      1.9685      0.0492
H                0.3947     -2.0258     -1.1661
H               -0.1084     -2.6104      0.4803
H                1.6460     -2.3205      0.1185
H               -0.1885      2.6070     -0.4759
H                1.5847      2.3581     -0.1821
H                0.3912      2.0353      1.1497
Br              -4.7896     -0.0560      0.0971
Br              -2.0784     -0.0245      0.0421
14
P16 HEAT OF FORMATION =  26.19821 KCAL =  109.61324 KJ
C                0.6052     -1.9549     -0.0716
C                0.4869     -0.5355      0.4198
C                0.4566      0.5466     -0.4388
H                0.5379     -0.3961      1.5103
H                0.4665      0.4080     -1.5306
C                0.5605      1.9688      0.0480
H                0.3877     -2.0281     -1.1636
H               -0.1008     -2.6167      0.4858
H                1.6490     -2.3119      0.1138
H               -0.1837      2.6130     -0.4794
H                1.5867      2.3509     -0.1802
H                0.3866      2.0372      1.1480
Br              -4.7846     -0.0567      0.0967
Br              -2.0543     -0.0246      0.0419
14
P17 HEAT OF FORMATION =  27.68773 KCAL =  115.84539 KJ
C                0.6036     -1.9549     -0.0704
C                0.4772     -0.5369      0.4215
C                0.4461      0.5484     -0.4401
H                0.5323     -0.3956      1.5116
H                0.4587      0.4079     -1.5316
C                0.5594      1.9692      0.0468
H                0.3817     -2.0300     -1.1614
H               -0.0943     -2.6226      0.4903
H                1.6512     -2.3033      0.1102
H               -0.1778      2.6197     -0.4829
H                1.5896      2.3427     -0.1786
H                0.3830      2.0394      1.1463
Br              -4.7801     -0.0596      0.0961
Br              -2.0305     -0.0245      0.0423
14
P18 HEAT OF FORMATION =  29.15563 KCAL =  121.98707 KJ
C                0.6030     -1.9550     -0.0694
C                0.4665     -0.5388      0.4230
C                0.4353      0.5498     -0.4415
H                0.5256     -0.3954      1.5128
H                0.4527      0.4074     -1.5329
C                0.5575      1.9692      0.0455
H                0.3770     -2.0326     -1.1593
H               -0.0859     -2.6294      0.4945
H                1.6548     -2.2937      0.1066
H               -0.1718      2.6260     -0.4876
H                1.5919      2.3341     -0.1755
H                0.3768      2.0414      1.1443
Br              -4.7761     -0.0585      0.0981
Br              -2.0074     -0.0246      0.0415
14
P19 HEAT OF FORMATION =  30.60257 KCAL =  128.04108 KJ
C                0.6020     -1.9549     -0.0683
C                0.4556     -0.5403      0.4245
C                0.4241      0.5516     -0.4429
H                0.5192     -0.3951      1.5139
H                0.4457      0.4074     -1.5342
C                0.5564      1.9695      0.0441
H                0.3726     -2.0347     -1.1576
H               -0.0787     -2.6356      0.4981
H                1.6575     -2.2841      0.1038
H               -0.1640      2.6330     -0.4927
H                1.5953      2.3243     -0.1721
H                0.3713      2.0441      1.1421
Br              -4.7724     -0.0610      0.1001
Br              -1.9845     -0.0243      0.0412
14
P20 HEAT OF FORMATION =  32.03193 KCAL =  134.02152 KJ
C                0.6013     -1.9547     -0.0673
C                0.4443     -0.5420      0.4259
C                0.4121      0.5532     -0.4443
H                0.5132     -0.3948      1.5150
H                0.4384      0.4073     -1.5355
C                0.5551      1.9695      0.0427
H                0.3705     -2.0366     -1.1561
H               -0.0720     -2.6416      0.5004
H                1.6602     -2.2744      0.1027
H               -0.1569      2.6399     -0.4969
H                1.5984      2.3144     -0.1701
H                0.3669      2.0465      1.1401
Br              -4.7692     -0.0623      0.1021
Br              -1.9622     -0.0244      0.0413
14
P21 HEAT OF FORMATION =  33.45033 KCAL =  139.95609 KJ
C                0.6013     -1.9545     -0.0664
C                0.4322     -0.5439      0.4274
C                0.3995      0.5546     -0.4456
H                0.5067     -0.3949      1.5161
H                0.4314      0.4069     -1.5365
C                0.5537      1.9693      0.0413
H                0.3686     -2.0389     -1.1547
H               -0.0637     -2.6484      0.5030
H                1.6638     -2.2636      0.1011
H               -0.1499      2.6464     -0.5011
H                1.6010      2.3039     -0.1681
H                0.3624      2.0490      1.1380
Br              -4.7666     -0.0614      0.1039
Br              -1.9404     -0.0245      0.0415
14
P22 HEAT OF FORMATION =  34.86801 KCAL =  145.88765 KJ
C                0.6008     -1.9540     -0.0653
C                0.4198     -0.5457      0.4290
C                0.3864      0.5563     -0.4467
H                0.5009     -0.3947      1.5172
H                0.4236      0.4068     -1.5375
C                0.5529      1.9690      0.0400
H                0.3660     -2.0411     -1.1529
H               -0.0553     -2.6548      0.5059
H                1.6671     -2.2523      0.0992
H               -0.1425      2.6532     -0.5044
H                1.6041      2.2930     -0.1670
H                0.3598      2.0514      1.1362
Br              -4.7645     -0.0624      0.1042
Br              -1.9191     -0.0246      0.0420
14
P23 HEAT OF FORMATION =  36.29869 KCAL =  151.87360 KJ
C                0.6006     -1.9534     -0.0641
C                0.4067     -0.5476      0.4307
C                0.3729      0.5579     -0.4476
H                0.4946     -0.3947      1.5184
H                0.4166      0.4067     -1.5383
C                0.5521      1.9686      0.0387
H                0.3636     -2.0433     -1.1511
H               -0.0463     -2.6614      0.5091
H                1.6705     -2.2404      0.0973
H               -0.1358      2.6596     -0.5066
H                1.6068      2.2821     -0.1674
H                0.3588      2.0536      1.1347
Br              -4.7628     -0.0629      0.1043
Br              -1.8982     -0.0248      0.0418
14
P24 HEAT OF FORMATION =  37.75974 KCAL =  157.98663 KJ
C                0.6013     -1.9528     -0.0630
C                0.3928     -0.5498      0.4320
C                0.3585      0.5593     -0.4488
H                0.4877     -0.3949      1.5192
H                0.4095      0.4063     -1.5392
C                0.5509      1.9677      0.0373
H                0.3645     -2.0455     -1.1499
H               -0.0371     -2.6683      0.5105
H                1.6747     -2.2277      0.0976
H               -0.1290      2.6659     -0.5092
H                1.6092      2.2702     -0.1676
H                0.3570      2.0554      1.1331
Br              -4.7619     -0.0609      0.1062
Br              -1.8781     -0.0250      0.0418
14
P25 HEAT OF FORMATION =  39.27230 KCAL =  164.31519 KJ
C                0.6015     -1.9518     -0.0619
C                0.3783     -0.5518      0.4335
C                0.3437      0.5609     -0.4498
H                0.4810     -0.3949      1.5201
H                0.4025      0.4062     -1.5400
C                0.5504      1.9668      0.0359
H                0.3648     -2.0475     -1.1486
H               -0.0280     -2.6748      0.5122
H                1.6783     -2.2145      0.0977
H               -0.1214      2.6723     -0.5114
H                1.6122      2.2577     -0.1683
H                0.3567      2.0575      1.1316
Br              -4.7615     -0.0611      0.1077
Br              -1.8585     -0.0251      0.0413
14
P26 HEAT OF FORMATION =  40.86042 KCAL =  170.95988 KJ
C                0.6013     -1.9504     -0.0607
C                0.3630     -0.5535      0.4349
C                0.3280      0.5628     -0.4508
H                0.4745     -0.3947      1.5208
H                0.3952      0.4064     -1.5406
C                0.5506      1.9659      0.0346
H                0.3633     -2.0495     -1.1469
H               -0.0177     -2.6811      0.5150
H                1.6817     -2.1999      0.0962
H               -0.1113      2.6795     -0.5141
H                1.6164      2.2434     -0.1680
H                0.3564      2.0599      1.1299
Br              -4.7618     -0.0640      0.1085
Br              -1.8396     -0.0248      0.0411
14
P27 HEAT OF FORMATION =  42.55146 KCAL =  178.03518 KJ
C                0.6016     -1.9488     -0.0595
C                0.3471     -0.5556      0.4365
C                0.3118      0.5646     -0.4515
H                0.4682     -0.3947      1.5214
H                0.3881      0.4064     -1.5409
C                0.5507      1.9645      0.0334
H                0.3600     -2.0523     -1.1446
H               -0.0049     -2.6876      0.5193
H                1.6860     -2.1837      0.0924
H               -0.1011      2.6863     -0.5170
H                1.6204      2.2286     -0.1672
H                0.3556      2.0621      1.1284
Br              -4.7625     -0.0652      0.1080
Br              -1.8212     -0.0246      0.0412
14
P28 HEAT OF FORMATION =  44.37549 KCAL =  185.66693 KJ
C                0.6021     -1.9470     -0.0584
C                0.3307     -0.5576      0.4378
C                0.2950      0.5664     -0.4523
H                0.4620     -0.3947      1.5218
H                0.3812      0.4064     -1.5412
C                0.5508      1.9629      0.0320
H                0.3615     -2.0538     -1.1434
H                0.0053     -2.6936      0.5205
H                1.6895     -2.1683      0.0930
H               -0.0912      2.6928     -0.5194
H                1.6240      2.2133     -0.1678
H                0.3561      2.0641      1.1267
Br              -4.7638     -0.0665      0.1096
Br              -1.8033     -0.0245      0.0411
14
P29 HEAT OF FORMATION =  46.36499 KCAL =  193.99097 KJ
C                0.6029     -1.9448     -0.0573
C                0.3136     -0.5598      0.4392
C                0.2774      0.5682     -0.4530
H                0.4559     -0.3947      1.5220
H                0.3743      0.4064     -1.5413
C                0.5510      1.9610      0.0306
H                0.3625     -2.0554     -1.1420
H                0.0170     -2.6996      0.5225
H                1.6935     -2.1515      0.0927
H               -0.0810      2.6991     -0.5216
H                1.6276      2.1972     -0.1687
H                0.3572      2.0657      1.1252
Br              -4.7657     -0.0671      0.1105
Br              -1.7861     -0.0246      0.0410
14
P30 HEAT OF FORMATION =  48.55447 KCAL =  203.15175 KJ
C                0.6040     -1.9425     -0.0560
C                0.2959     -0.5621      0.4407
C                0.2593      0.5698     -0.4536
H                0.4499     -0.3948      1.5221
H                0.3675      0.4062     -1.5411
C                0.5511      1.9586      0.0292
H                0.3633     -2.0571     -1.1404
H                0.0301     -2.7056      0.5249
H                1.6977     -2.1335      0.0918
H               -0.0709      2.7049     -0.5234
H                1.6309      2.1806     -0.1698
H                0.3586      2.0669      1.1238
Br              -4.7682     -0.0665      0.1107
Br              -1.7693     -0.0249      0.0411
