53
Frame 1
C 1.1220 -3.3684 -2.3846
C 2.2440 -2.4369 -2.0781
C 2.1300 -1.3727 -1.2681
C 3.5318 -2.7677 -2.7387
C 0.8864 -0.9537 -0.5812
H 3.0079 -0.7281 -1.0842
H 4.3045 -1.9822 -2.5540
H 3.3814 -2.8637 -3.8433
H 3.9226 -3.7432 -2.3545
H 0.4602 -3.4783 -1.4829
H 1.5386 -4.3871 -2.6126
C 0.2901 -2.8946 -3.5527
H -0.4664 -3.6699 -3.8237
H 0.9355 -2.7026 -4.4434
H -0.2521 -1.9500 -3.2932
C 1.1547 0.0979 0.4781
H 0.3788 -1.8436 -0.1189
H 0.1649 -0.5476 -1.3456
C -0.0964 0.6377 1.1530
H 1.7079 0.9612 0.0151
H 1.8249 -0.3274 1.2714
C 0.2679 1.8323 2.1145
C -0.8994 -0.4497 1.8600
C -1.0038 1.3822 0.1289
H -1.5238 -0.9876 1.0946
H -1.6107 0.0536 2.5693
C -0.1034 -1.4890 2.6090
H -0.7972 -2.1284 3.2092
H 0.6359 -1.0271 3.3050
H 0.4567 -2.1526 1.9064
C -1.8016 2.4308 0.9153
O -1.8932 0.4841 -0.5272
H -0.3509 1.8803 -0.6422
C -1.0280 2.6752 2.1974
O 1.2913 2.5738 1.4969
C 0.7175 1.4410 3.5129
H 0.9515 2.3908 4.0610
H 1.6461 0.8249 3.4604
H -0.0744 0.8806 4.0617
H -0.7212 3.7544 2.3276
H -1.6364 2.3701 3.0831
H -1.8975 3.3680 0.3139
H -2.8311 2.0480 1.1292
S -2.3869 0.6902 -2.0845
O -1.9791 1.9310 -2.5454
O -1.9876 -0.4526 -2.7617
C -4.0580 0.6648 -1.8481
H -4.3331 0.3236 -0.8169
H -4.5774 -0.0265 -2.5559
H -4.5213 1.6743 -1.9769
H 1.3476 5.3360 2.2482
O 1.1473 4.6179 2.8243
H 1.3832 3.4067 1.9714
53
Frame 2
C 1.1220 -3.3651 -2.3879
C 2.2448 -2.4362 -2.0773
C 2.1308 -1.3737 -1.2652
C 3.5332 -2.7676 -2.7363
C 0.8866 -0.9542 -0.5798
H 3.0093 -0.7309 -1.0782
H 4.3069 -1.9842 -2.5480
H 3.3849 -2.8603 -3.8413
H 3.9215 -3.7448 -2.3542
H 0.4583 -3.4757 -1.4877
H 1.5373 -4.3840 -2.6173
C 0.2931 -2.8875 -3.5564
H -0.4642 -3.6609 -3.8304
H 0.9404 -2.6948 -4.4454
H -0.2481 -1.9426 -3.2959
C 1.1538 0.0961 0.4809
H 0.3775 -1.8441 -0.1192
H 0.1667 -0.5468 -1.3450
C -0.0977 0.6361 1.1545
H 1.7080 0.9599 0.0201
H 1.8226 -0.3305 1.2747
C 0.2684 1.8336 2.1147
C -0.9014 -0.4504 1.8618
C -1.0042 1.3802 0.1301
H -1.5267 -0.9879 1.0968
H -1.6120 0.0536 2.5713
C -0.1061 -1.4905 2.6105
H -0.8002 -2.1292 3.2111
H 0.6340 -1.0292 3.3060
H 0.4529 -2.1546 1.9075
C -1.8049 2.4263 0.9167
O -1.8911 0.4817 -0.5290
H -0.3510 1.8805 -0.6392
C -1.0298 2.6751 2.1968
O 1.2895 2.5737 1.5003
C 0.7135 1.4398 3.5144
H 0.9468 2.3878 4.0652
H 1.6417 0.8230 3.4632
H -0.0799 0.8792 4.0606
H -0.7253 3.7547 2.3222
H -1.6368 2.3726 3.0842
H -1.9063 3.3620 0.3145
H -2.8320 2.0392 1.1332
S -2.3880 0.6927 -2.0840
O -1.9867 1.9370 -2.5400
O -1.9857 -0.4448 -2.7675
C -4.0586 0.6593 -1.8457
H -4.3307 0.3177 -0.8140
H -4.5752 -0.0349 -2.5524
H -4.5267 1.6662 -1.9747
H 1.3564 5.3221 2.2085
O 1.1751 4.6264 2.8014
H 1.3932 3.4288 1.9897
53
Frame 3
C 1.1219 -3.3618 -2.3912
C 2.2456 -2.4356 -2.0765
C 2.1316 -1.3747 -1.2623
C 3.5347 -2.7676 -2.7339
C 0.8867 -0.9548 -0.5784
H 3.0106 -0.7337 -1.0721
H 4.3093 -1.9861 -2.5419
H 3.3884 -2.8569 -3.8394
H 3.9205 -3.7464 -2.3539
H 0.4564 -3.4732 -1.4925
H 1.5359 -4.3809 -2.6220
C 0.2960 -2.8804 -3.5600
H -0.4619 -3.6519 -3.8371
H 0.9453 -2.6869 -4.4474
H -0.2441 -1.9351 -3.2986
C 1.1529 0.0943 0.4838
H 0.3761 -1.8446 -0.1195
H 0.1685 -0.5461 -1.3444
C -0.0989 0.6346 1.1561
H 1.7082 0.9586 0.0251
H 1.8204 -0.3335 1.2779
C 0.2689 1.8350 2.1150
C -0.9033 -0.4510 1.8636
C -1.0047 1.3783 0.1313
H -1.5295 -0.9881 1.0991
H -1.6132 0.0536 2.5734
C -0.1088 -1.4919 2.6119
H -0.8031 -2.1300 3.2130
H 0.6321 -1.0314 3.3071
H 0.4491 -2.1565 1.9086
C -1.8082 2.4217 0.9182
O -1.8890 0.4793 -0.5309
H -0.3512 1.8807 -0.6362
C -1.0316 2.6751 2.1963
O 1.2878 2.5736 1.5036
C 0.7095 1.4385 3.5159
H 0.9422 2.3848 4.0695
H 1.6374 0.8212 3.4661
H -0.0855 0.8777 4.0595
H -0.7293 3.7549 2.3169
H -1.6373 2.3751 3.0852
H -1.9151 3.3560 0.3150
H -2.8329 2.0305 1.1373
S -2.3891 0.6953 -2.0835
O -1.9942 1.9430 -2.5346
O -1.9837 -0.4369 -2.7732
C -4.0591 0.6539 -1.8433
H -4.3283 0.3118 -0.8110
H -4.5729 -0.0433 -2.5489
H -4.5320 1.6582 -1.9725
H 1.3651 5.3083 2.1687
O 1.2029 4.6348 2.7786
H 1.4032 3.4509 2.0081
53
Frame 4
C 1.1219 -3.3585 -2.3944
C 2.2464 -2.4349 -2.0757
C 2.1325 -1.3757 -1.2593
C 3.5361 -2.7675 -2.7315
C 0.8869 -0.9553 -0.5771
H 3.0120 -0.7365 -1.0661
H 4.3116 -1.9881 -2.5359
H 3.3919 -2.8535 -3.8374
H 3.9194 -3.7480 -2.3535
H 0.4546 -3.4706 -1.4973
H 1.5346 -4.3778 -2.6267
C 0.2990 -2.8733 -3.5637
H -0.4597 -3.6429 -3.8438
H 0.9502 -2.6791 -4.4495
H -0.2400 -1.9277 -3.3013
C 1.1520 0.0925 0.4866
H 0.3748 -1.8452 -0.1198
H 0.1703 -0.5453 -1.3438
C -0.1002 0.6330 1.1576
H 1.7083 0.9574 0.0301
H 1.8181 -0.3366 1.2812
C 0.2694 1.8363 2.1152
C -0.9053 -0.4517 1.8654
C -1.0051 1.3763 0.1326
H -1.5324 -0.9884 1.1013
H -1.6145 0.0535 2.5754
C -0.1115 -1.4934 2.6134
H -0.8061 -2.1308 3.2148
H 0.6303 -1.0335 3.3081
H 0.4453 -2.1585 1.9097
C -1.8114 2.4172 0.9196
O -1.8869 0.4769 -0.5327
H -0.3513 1.8810 -0.6332
C -1.0334 2.6750 2.1957
O 1.2860 2.5735 1.5070
C 0.7055 1.4373 3.5174
H 0.9375 2.3818 4.0737
H 1.6330 0.8193 3.4689
H -0.0910 0.8763 4.0584
H -0.7334 3.7552 2.3115
H -1.6377 2.3776 3.0863
H -1.9239 3.3500 0.3156
H -2.8338 2.0217 1.1413
S -2.3902 0.6978 -2.0830
O -2.0018 1.9490 -2.5292
O -1.9818 -0.4291 -2.7790
C -4.0597 0.6484 -1.8408
H -4.3259 0.3058 -0.8081
H -4.5707 -0.0517 -2.5454
H -4.5374 1.6501 -1.9703
H 1.3739 5.2944 2.1290
O 1.2307 4.6433 2.7557
H 1.4132 3.4730 2.0264
53
Frame 5
C 1.1218 -3.3553 -2.3977
C 2.2472 -2.4342 -2.0749
C 2.1333 -1.3767 -1.2564
C 3.5375 -2.7674 -2.7291
C 0.8870 -0.9558 -0.5757
H 3.0133 -0.7393 -1.0601
H 4.3140 -1.9900 -2.5298
H 3.3953 -2.8501 -3.8354
H 3.9183 -3.7496 -2.3532
H 0.4527 -3.4680 -1.5020
H 1.5333 -4.3747 -2.6314
C 0.3019 -2.8662 -3.5674
H -0.4574 -3.6338 -3.8505
H 0.9551 -2.6712 -4.4515
H -0.2360 -1.9203 -3.3039
C 1.1511 0.0907 0.4895
H 0.3735 -1.8457 -0.1200
H 0.1721 -0.5445 -1.3432
C -0.1015 0.6314 1.1591
H 1.7085 0.9561 0.0352
H 1.8158 -0.3397 1.2845
C 0.2699 1.8376 2.1155
C -0.9072 -0.4523 1.8672
C -1.0055 1.3744 0.1338
H -1.5353 -0.9887 1.1036
H -1.6158 0.0535 2.5775
C -0.1142 -1.4948 2.6149
H -0.8091 -2.1316 3.2167
H 0.6284 -1.0357 3.3091
H 0.4416 -2.1605 1.9108
C -1.8147 2.4127 0.9210
O -1.8848 0.4745 -0.5345
H -0.3515 1.8812 -0.6302
C -1.0351 2.6749 2.1951
O 1.2842 2.5734 1.5104
C 0.7016 1.4361 3.5189
H 0.9328 2.3788 4.0779
H 1.6286 0.8175 3.4717
H -0.0965 0.8749 4.0573
H -0.7375 3.7555 2.3061
H -1.6381 2.3801 3.0874
H -1.9327 3.3440 0.3161
H -2.8348 2.0129 1.1453
S -2.3913 0.7003 -2.0825
O -2.0094 1.9550 -2.5239
O -1.9798 -0.4212 -2.7848
C -4.0603 0.6429 -1.8384
H -4.3235 0.2999 -0.8051
H -4.5684 -0.0601 -2.5419
H -4.5428 1.6421 -1.9681
H 1.3826 5.2805 2.0893
O 1.2586 4.6517 2.7328
H 1.4232 3.4951 2.0447
53
Frame 6
C 1.1218 -3.3520 -2.4010
C 2.2480 -2.4336 -2.0741
C 2.1341 -1.3777 -1.2535
C 3.5389 -2.7673 -2.7267
C 0.8872 -0.9564 -0.5743
H 3.0147 -0.7421 -1.0541
H 4.3164 -1.9920 -2.5238
H 3.3988 -2.8467 -3.8334
H 3.9173 -3.7512 -2.3529
H 0.4508 -3.4655 -1.5068
H 1.5320 -4.3715 -2.6361
C 0.3049 -2.8591 -3.5711
H -0.4552 -3.6248 -3.8572
H 0.9600 -2.6634 -4.4535
H -0.2320 -1.9128 -3.3066
C 1.1502 0.0889 0.4923
H 0.3722 -1.8462 -0.1203
H 0.1738 -0.5438 -1.3426
C -0.1028 0.6299 1.1607
H 1.7086 0.9548 0.0402
H 1.8136 -0.3427 1.2877
C 0.2704 1.8389 2.1157
C -0.9092 -0.4530 1.8690
C -1.0060 1.3724 0.1350
H -1.5381 -0.9889 1.1058
H -1.6170 0.0535 2.5795
C -0.1169 -1.4963 2.6163
H -0.8121 -2.1324 3.2186
H 0.6265 -1.0378 3.3101
H 0.4378 -2.1625 1.9120
C -1.8180 2.4081 0.9225
O -1.8826 0.4721 -0.5364
H -0.3516 1.8814 -0.6272
C -1.0369 2.6749 2.1945
O 1.2824 2.5732 1.5138
C 0.6976 1.4348 3.5204
H 0.9282 2.3757 4.0822
H 1.6243 0.8156 3.4745
H -0.1020 0.8734 4.0562
H -0.7415 3.7558 2.3007
H -1.6386 2.3826 3.0885
H -1.9415 3.3380 0.3167
H -2.8357 2.0042 1.1493
S -2.3924 0.7028 -2.0820
O -2.0169 1.9610 -2.5185
O -1.9779 -0.4134 -2.7905
C -4.0608 0.6374 -1.8360
H -4.3211 0.2940 -0.8022
H -4.5662 -0.0685 -2.5384
H -4.5481 1.6340 -1.9660
H 1.3914 5.2667 2.0495
O 1.2864 4.6602 2.7099
H 1.4332 3.5172 2.0631
53
Frame 7
C 1.1217 -3.3487 -2.4043
C 2.2488 -2.4329 -2.0733
C 2.1349 -1.3787 -1.2506
C 3.5404 -2.7673 -2.7243
C 0.8873 -0.9569 -0.5729
H 3.0160 -0.7449 -1.0480
H 4.3188 -1.9939 -2.5177
H 3.4023 -2.8433 -3.8315
H 3.9162 -3.7528 -2.3526
H 0.4489 -3.4629 -1.5116
H 1.5306 -4.3684 -2.6408
C 0.3078 -2.8520 -3.5747
H -0.4529 -3.6158 -3.8639
H 0.9649 -2.6555 -4.4555
H -0.2280 -1.9054 -3.3093
C 1.1493 0.0871 0.4952
H 0.3708 -1.8467 -0.1206
H 0.1756 -0.5430 -1.3420
C -0.1040 0.6283 1.1622
H 1.7088 0.9535 0.0452
H 1.8113 -0.3458 1.2910
C 0.2709 1.8403 2.1160
C -0.9111 -0.4536 1.8708
C -1.0064 1.3705 0.1362
H -1.5410 -0.9892 1.1081
H -1.6183 0.0535 2.5816
C -0.1196 -1.4977 2.6178
H -0.8150 -2.1332 3.2205
H 0.6246 -1.0400 3.3112
H 0.4340 -2.1644 1.9131
C -1.8213 2.4036 0.9239
O -1.8805 0.4697 -0.5382
H -0.3518 1.8816 -0.6242
C -1.0387 2.6748 2.1940
O 1.2807 2.5731 1.5171
C 0.6936 1.4336 3.5219
H 0.9235 2.3727 4.0864
H 1.6199 0.8138 3.4774
H -0.1076 0.8720 4.0551
H -0.7456 3.7560 2.2954
H -1.6390 2.3851 3.0895
H -1.9503 3.3320 0.3172
H -2.8366 1.9954 1.1534
S -2.3935 0.7054 -2.0815
O -2.0245 1.9670 -2.5131
O -1.9759 -0.4055 -2.7963
C -4.0614 0.6320 -1.8336
H -4.3187 0.2881 -0.7992
H -4.5639 -0.0769 -2.5349
H -4.5535 1.6260 -1.9638
H 1.4001 5.2528 2.0098
O 1.3142 4.6686 2.6871
H 1.4432 3.5393 2.0814
53
Frame 8
C 1.1217 -3.3454 -2.4076
C 2.2496 -2.4322 -2.0725
C 2.1357 -1.3797 -1.2477
C 3.5418 -2.7672 -2.7219
C 0.8875 -0.9574 -0.5715
H 3.0174 -0.7477 -1.0420
H 4.3212 -1.9959 -2.5117
H 3.4058 -2.8399 -3.8295
H 3.9152 -3.7544 -2.3523
H 0.4470 -3.4603 -1.5164
H 1.5293 -4.3653 -2.6455
C 0.3108 -2.8449 -3.5784
H -0.4507 -3.6068 -3.8706
H 0.9698 -2.6477 -4.4575
H -0.2240 -1.8980 -3.3120
C 1.1484 0.0853 0.4980
H 0.3695 -1.8472 -0.1209
H 0.1774 -0.5422 -1.3414
C -0.1053 0.6268 1.1637
H 1.7089 0.9522 0.0502
H 1.8091 -0.3489 1.2942
C 0.2714 1.8416 2.1162
C -0.9131 -0.4543 1.8726
C -1.0068 1.3685 0.1374
H -1.5439 -0.9894 1.1103
H -1.6195 0.0535 2.5836
C -0.1223 -1.4992 2.6193
H -0.8180 -2.1340 3.2224
H 0.6227 -1.0421 3.3122
H 0.4302 -2.1664 1.9142
C -1.8246 2.3990 0.9253
O -1.8784 0.4673 -0.5400
H -0.3519 1.8818 -0.6212
C -1.0405 2.6747 2.1934
O 1.2789 2.5730 1.5205
C 0.6896 1.4323 3.5234
H 0.9188 2.3697 4.0906
H 1.6155 0.8119 3.4802
H -0.1131 0.8705 4.0540
H -0.7497 3.7563 2.2900
H -1.6394 2.3876 3.0906
H -1.9591 3.3260 0.3178
H -2.8375 1.9867 1.1574
S -2.3946 0.7079 -2.0810
O -2.0321 1.9730 -2.5077
O -1.9740 -0.3977 -2.8021
C -4.0620 0.6265 -1.8312
H -4.3163 0.2822 -0.7963
H -4.5617 -0.0853 -2.5314
H -4.5589 1.6179 -1.9616
H 1.4089 5.2389 1.9700
O 1.3420 4.6771 2.6642
H 1.4532 3.5614 2.0998
53
Frame 9
C 1.1216 -3.3421 -2.4108
C 2.2504 -2.4316 -2.0717
C 2.1366 -1.3807 -1.2447
C 3.5432 -2.7671 -2.7195
C 0.8876 -0.9580 -0.5702
H 3.0187 -0.7505 -1.0360
H 4.3235 -1.9979 -2.5056
H 3.4093 -2.8365 -3.8275
H 3.9141 -3.7560 -2.3519
H 0.4452 -3.4578 -1.5212
H 1.5280 -4.3622 -2.6502
C 0.3138 -2.8378 -3.5821
H -0.4484 -3.5978 -3.8773
H 0.9747 -2.6399 -4.4596
H -0.2199 -1.8905 -3.3147
C 1.1475 0.0835 0.5008
H 0.3682 -1.8478 -0.1212
H 0.1792 -0.5415 -1.3408
C -0.1066 0.6252 1.1653
H 1.7090 0.9510 0.0552
H 1.8068 -0.3519 1.2975
C 0.2719 1.8429 2.1165
C -0.9150 -0.4549 1.8744
C -1.0073 1.3666 0.1387
H -1.5467 -0.9897 1.1125
H -1.6208 0.0534 2.5856
C -0.1250 -1.5007 2.6207
H -0.8210 -2.1348 3.2242
H 0.6209 -1.0443 3.3132
H 0.4264 -2.1684 1.9153
C -1.8278 2.3945 0.9268
O -1.8763 0.4649 -0.5419
H -0.3520 1.8821 -0.6182
C -1.0423 2.6747 2.1928
O 1.2771 2.5729 1.5239
C 0.6856 1.4311 3.5249
H 0.9142 2.3667 4.0949
H 1.6112 0.8100 3.4830
H -0.1186 0.8691 4.0529
H -0.7537 3.7566 2.2846
H -1.6399 2.3901 3.0917
H -1.9679 3.3200 0.3184
H -2.8384 1.9779 1.1614
S -2.3957 0.7104 -2.0805
O -2.0396 1.9790 -2.5023
O -1.9720 -0.3898 -2.8078
C -4.0625 0.6210 -1.8287
H -4.3139 0.2762 -0.7934
H -4.5594 -0.0937 -2.5279
H -4.5642 1.6099 -1.9594
H 1.4176 5.2251 1.9303
O 1.3698 4.6855 2.6413
H 1.4632 3.5835 2.1181
53
Frame 10
C 1.1216 -3.3388 -2.4141
C 2.2512 -2.4309 -2.0709
C 2.1374 -1.3817 -1.2418
C 3.5446 -2.7670 -2.7171
C 0.8878 -0.9585 -0.5688
H 3.0201 -0.7533 -1.0300
H 4.3259 -1.9998 -2.4996
H 3.4128 -2.8331 -3.8255
H 3.9130 -3.7576 -2.3516
H 0.4433 -3.4552 -1.5260
H 1.5267 -4.3591 -2.6549
C 0.3167 -2.8307 -3.5858
H -0.4462 -3.5888 -3.8840
H 0.9796 -2.6320 -4.4616
H -0.2159 -1.8831 -3.3174
C 1.1466 0.0817 0.5037
H 0.3669 -1.8483 -0.1215
H 0.1810 -0.5407 -1.3402
C -0.1079 0.6236 1.1668
H 1.7092 0.9497 0.0602
H 1.8045 -0.3550 1.3008
C 0.2724 1.8442 2.1167
C -0.9170 -0.4556 1.8762
C -1.0077 1.3646 0.1399
H -1.5496 -0.9900 1.1148
H -1.6221 0.0534 2.5877
C -0.1277 -1.5021 2.6222
H -0.8240 -2.1356 3.2261
H 0.6190 -1.0464 3.3142
H 0.4226 -2.1704 1.9164
C -1.8311 2.3900 0.9282
O -1.8742 0.4625 -0.5437
H -0.3522 1.8823 -0.6152
C -1.0441 2.6746 2.1922
O 1.2753 2.5728 1.5273
C 0.6816 1.4299 3.5264
H 0.9095 2.3637 4.0991
H 1.6068 0.8082 3.4858
H -0.1241 0.8677 4.0518
H -0.7578 3.7569 2.2792
H -1.6403 2.3926 3.0928
H -1.9767 3.3140 0.3189
H -2.8393 1.9691 1.1654
S -2.3968 0.7129 -2.0800
O -2.0472 1.9850 -2.4969
O -1.9701 -0.3820 -2.8136
C -4.0631 0.6155 -1.8263
H -4.3115 0.2703 -0.7904
H -4.5572 -0.1021 -2.5244
H -4.5696 1.6018 -1.9572
H 1.4264 5.2112 1.8906
O 1.3976 4.6940 2.6184
H 1.4732 3.6056 2.1364
53
Frame 11
C 1.1215 -3.3356 -2.4174
C 2.2519 -2.4302 -2.0702
C 2.1382 -1.3827 -1.2389
C 3.5461 -2.7670 -2.7148
C 0.8879 -0.9590 -0.5674
H 3.0214 -0.7560 -1.0239
H 4.3283 -2.0018 -2.4935
H 3.4162 -2.8296 -3.8236
H 3.9120 -3.7592 -2.3513
H 0.4414 -3.4526 -1.5307
H 1.5253 -4.3560 -2.6596
C 0.3197 -2.8235 -3.5894
H -0.4439 -3.5797 -3.8907
H 0.9845 -2.6242 -4.4636
H -0.2119 -1.8757 -3.3200
C 1.1458 0.0798 0.5065
H 0.3655 -1.8488 -0.1217
H 0.1828 -0.5399 -1.3396
C -0.1091 0.6221 1.1683
H 1.7093 0.9484 0.0653
H 1.8023 -0.3581 1.3040
C 0.2728 1.8456 2.1170
C -0.9189 -0.4562 1.8779
C -1.0081 1.3627 0.1411
H -1.5525 -0.9902 1.1170
H -1.6233 0.0534 2.5897
C -0.1305 -1.5036 2.6237
H -0.8269 -2.1364 3.2280
H 0.6171 -1.0486 3.3153
H 0.4189 -2.1723 1.9175
C -1.8344 2.3854 0.9296
O -1.8721 0.4600 -0.5455
H -0.3523 1.8825 -0.6122
C -1.0458 2.6745 2.1917
O 1.2736 2.5727 1.5306
C 0.6777 1.4286 3.5279
H 0.9048 2.3607 4.1033
H 1.6024 0.8063 3.4887
H -0.1297 0.8662 4.0506
H -0.7619 3.7571 2.2739
H -1.6407 2.3950 3.0938
H -1.9854 3.3081 0.3195
H -2.8403 1.9604 1.1695
S -2.3979 0.7155 -2.0795
O -2.0548 1.9910 -2.4916
O -1.9681 -0.3741 -2.8194
C -4.0637 0.6101 -1.8239
H -4.3092 0.2644 -0.7875
H -4.5549 -0.1104 -2.5209
H -4.5750 1.5938 -1.9550
H 1.4351 5.1973 1.8508
O 1.4255 4.7024 2.5956
H 1.4833 3.6276 2.1548
53
Frame 12
C 1.1215 -3.3323 -2.4207
C 2.2527 -2.4295 -2.0694
C 2.1390 -1.3837 -1.2360
C 3.5475 -2.7669 -2.7124
C 0.8881 -0.9595 -0.5660
H 3.0228 -0.7588 -1.0179
H 4.3307 -2.0037 -2.4875
H 3.4197 -2.8262 -3.8216
H 3.9109 -3.7608 -2.3510
H 0.4395 -3.4500 -1.5355
H 1.5240 -4.3529 -2.6643
C 0.3226 -2.8164 -3.5931
H -0.4417 -3.5707 -3.8974
H 0.9894 -2.6163 -4.4656
H -0.2079 -1.8683 -3.3227
C 1.1449 0.0780 0.5094
H 0.3642 -1.8493 -0.1220
H 0.1846 -0.5391 -1.3390
C -0.1104 0.6205 1.1698
H 1.7095 0.9471 0.0703
H 1.8000 -0.3612 1.3073
C 0.2733 1.8469 2.1172
C -0.9209 -0.4569 1.8797
C -1.0085 1.3607 0.1423
H -1.5554 -0.9905 1.1193
H -1.6246 0.0534 2.5918
C -0.1332 -1.5050 2.6252
H -0.8299 -2.1372 3.2299
H 0.6152 -1.0507 3.3163
H 0.4151 -2.1743 1.9186
C -1.8377 2.3809 0.9310
O -1.8700 0.4576 -0.5473
H -0.3525 1.8827 -0.6092
C -1.0476 2.6744 2.1911
O 1.2718 2.5726 1.5340
C 0.6737 1.4274 3.5294
H 0.9001 2.3577 4.1075
H 1.5980 0.8045 3.4915
H -0.1352 0.8648 4.0495
H -0.7660 3.7574 2.2685
H -1.6411 2.3975 3.0949
H -1.9942 3.3021 0.3200
H -2.8412 1.9516 1.1735
S -2.3990 0.7180 -2.0790
O -2.0624 1.9970 -2.4862
O -1.9662 -0.3663 -2.8252
C -4.0643 0.6046 -1.8215
H -4.3068 0.2585 -0.7845
H -4.5527 -0.1188 -2.5174
H -4.5804 1.5857 -1.9528
H 1.4439 5.1834 1.8111
O 1.4533 4.7109 2.5727
H 1.4933 3.6497 2.1731
53
Frame 13
C 1.1214 -3.3290 -2.4239
C 2.2535 -2.4289 -2.0686
C 2.1399 -1.3847 -1.2330
C 3.5489 -2.7668 -2.7100
C 0.8882 -0.9601 -0.5647
H 3.0241 -0.7616 -1.0119
H 4.3330 -2.0057 -2.4814
H 3.4232 -2.8228 -3.8196
H 3.9098 -3.7624 -2.3506
H 0.4377 -3.4475 -1.5403
H 1.5227 -4.3498 -2.6690
C 0.3256 -2.8093 -3.5968
H -0.4394 -3.5617 -3.9041
H 0.9943 -2.6085 -4.4676
H -0.2038 -1.8608 -3.3254
C 1.1440 0.0762 0.5122
H 0.3629 -1.8499 -0.1223
H 0.1864 -0.5384 -1.3384
C -0.1117 0.6189 1.1714
H 1.7096 0.9459 0.0753
H 1.7977 -0.3642 1.3106
C 0.2738 1.8482 2.1175
C -0.9228 -0.4575 1.8815
C -1.0090 1.3588 0.1436
H -1.5582 -0.9908 1.1215
H -1.6259 0.0533 2.5938
C -0.1359 -1.5065 2.6266
H -0.8329 -2.1380 3.2317
H 0.6134 -1.0529 3.3173
H 0.4113 -2.1763 1.9197
C -1.8409 2.3764 0.9325
O -1.8679 0.4552 -0.5492
H -0.3526 1.8830 -0.6062
C -1.0494 2.6744 2.1905
O 1.2700 2.5725 1.5374
C 0.6697 1.4262 3.5309
H 0.8955 2.3547 4.1118
H 1.5937 0.8026 3.4943
H -0.1407 0.8634 4.0484
H -0.7700 3.7577 2.2631
H -1.6416 2.4000 3.0960
H -2.0030 3.2961 0.3206
H -2.8421 1.9428 1.1775
S -2.4001 0.7205 -2.0785
O -2.0699 2.0030 -2.4808
O -1.9642 -0.3584 -2.8309
C -4.0648 0.5991 -1.8190
H -4.3044 0.2525 -0.7816
H -4.5504 -0.1272 -2.5139
H -4.5857 1.5777 -1.9506
H 1.4526 5.1696 1.7714
O 1.4811 4.7193 2.5498
H 1.5033 3.6718 2.1914
53
Frame 14
C 1.1214 -3.3257 -2.4272
C 2.2543 -2.4282 -2.0678
C 2.1407 -1.3857 -1.2301
C 3.5503 -2.7667 -2.7076
C 0.8884 -0.9606 -0.5633
H 3.0255 -0.7644 -1.0059
H 4.3354 -2.0077 -2.4754
H 3.4267 -2.8194 -3.8176
H 3.9088 -3.7640 -2.3503
H 0.4358 -3.4449 -1.5451
H 1.5214 -4.3467 -2.6737
C 0.3286 -2.8022 -3.6005
H -0.4372 -3.5527 -3.9108
H 0.9992 -2.6007 -4.4697
H -0.1998 -1.8534 -3.3281
C 1.1431 0.0744 0.5150
H 0.3616 -1.8504 -0.1226
H 0.1882 -0.5376 -1.3378
C -0.1130 0.6174 1.1729
H 1.7097 0.9446 0.0803
H 1.7955 -0.3673 1.3138
C 0.2743 1.8495 2.1177
C -0.9248 -0.4582 1.8833
C -1.0094 1.3568 0.1448
H -1.5611 -0.9910 1.1237
H -1.6271 0.0533 2.5958
C -0.1386 -1.5080 2.6281
H -0.8359 -2.1388 3.2336
H 0.6115 -1.0550 3.3183
H 0.4075 -2.1783 1.9208
C -1.8442 2.3718 0.9339
O -1.8658 0.4528 -0.5510
H -0.3527 1.8832 -0.6032
C -1.0512 2.6743 2.1899
O 1.2682 2.5724 1.5408
C 0.6657 1.4249 3.5324
H 0.8908 2.3517 4.1160
H 1.5893 0.8007 3.4971
H -0.1462 0.8619 4.0473
H -0.7741 3.7580 2.2577
H -1.6420 2.4025 3.0971
H -2.0118 3.2901 0.3212
H -2.8430 1.9341 1.1815
S -2.4012 0.7230 -2.0780
O -2.0775 2.0090 -2.4754
O -1.9623 -0.3506 -2.8367
C -4.0654 0.5936 -1.8166
H -4.3020 0.2466 -0.7787
H -4.5482 -0.1356 -2.5104
H -4.5911 1.5696 -1.9484
H 1.4614 5.1557 1.7316
O 1.5089 4.7278 2.5269
H 1.5133 3.6939 2.2098
53
Frame 15
C 1.1213 -3.3224 -2.4305
C 2.2551 -2.4275 -2.0670
C 2.1415 -1.3867 -1.2272
C 3.5518 -2.7667 -2.7052
C 0.8885 -0.9611 -0.5619
H 3.0268 -0.7672 -0.9998
H 4.3378 -2.0096 -2.4693
H 3.4302 -2.8160 -3.8157
H 3.9077 -3.7656 -2.3500
H 0.4339 -3.4423 -1.5499
H 1.5200 -4.3436 -2.6784
C 0.3315 -2.7951 -3.6041
H -0.4349 -3.5437 -3.9175
H 1.0041 -2.5928 -4.4717
H -0.1958 -1.8460 -3.3308
C 1.1422 0.0726 0.5179
H 0.3602 -1.8509 -0.1229
H 0.1900 -0.5368 -1.3372
C -0.1142 0.6158 1.1744
H 1.7099 0.9433 0.0853
H 1.7932 -0.3704 1.3171
C 0.2748 1.8509 2.1180
C -0.9267 -0.4588 1.8851
C -1.0098 1.3549 0.1460
H -1.5640 -0.9913 1.1260
H -1.6284 0.0533 2.5979
C -0.1413 -1.5094 2.6296
H -0.8388 -2.1396 3.2355
H 0.6096 -1.0572 3.3194
H 0.4037 -2.1802 1.9219
C -1.8475 2.3673 0.9353
O -1.8637 0.4504 -0.5528
H -0.3529 1.8834 -0.6002
C -1.0530 2.6742 2.1894
O 1.2665 2.5723 1.5441
C 0.6617 1.4237 3.5339
H 0.8861 2.3487 4.1202
H 1.5849 0.7989 3.5000
H -0.1518 0.8605 4.0462
H -0.7782 3.7582 2.2524
H -1.6424 2.4050 3.0981
H -2.0206 3.2841 0.3217
H -2.8439 1.9253 1.1856
S -2.4023 0.7256 -2.0775
O -2.0851 2.0150 -2.4700
O -1.9603 -0.3427 -2.8425
C -4.0660 0.5882 -1.8142
H -4.2996 0.2407 -0.7757
H -4.5459 -0.1440 -2.5069
H -4.5965 1.5616 -1.9462
H 1.4701 5.1418 1.6919
O 1.5367 4.7362 2.5041
H 1.5233 3.7160 2.2281
53
Frame 16
C 1.1213 -3.3191 -2.4338
C 2.2559 -2.4269 -2.0662
C 2.1423 -1.3877 -1.2243
C 3.5532 -2.7666 -2.7028
C 0.8887 -0.9617 -0.5605
H 3.0282 -0.7700 -0.9938
H 4.3402 -2.0116 -2.4633
H 3.4337 -2.8126 -3.8137
H 3.9067 -3.7672 -2.3497
H 0.4320 -3.4398 -1.5547
H 1.5187 -4.3404 -2.6831
C 0.3345 -2.7880 -3.6078
H -0.4327 -3.5347 -3.9242
H 1.0090 -2.5850 -4.4737
H -0.1918 -1.8385 -3.3335
C 1.1413 0.0708 0.5207
H 0.3589 -1.8514 -0.1232
H 0.1917 -0.5361 -1.3366
C -0.1155 0.6143 1.1760
H 1.7100 0.9420 0.0903
H 1.7910 -0.3734 1.3203
C 0.2753 1.8522 2.1182
C -0.9287 -0.4595 1.8869
C -1.0103 1.3529 0.1472
H -1.5668 -0.9915 1.1282
H -1.6296 0.0533 2.5999
C -0.1440 -1.5109 2.6310
H -0.8418 -2.1404 3.2374
H 0.6077 -1.0593 3.3204
H 0.3999 -2.1822 1.9231
C -1.8508 2.3627 0.9368
O -1.8615 0.4480 -0.5547
H -0.3530 1.8836 -0.5972
C -1.0548 2.6742 2.1888
O 1.2647 2.5721 1.5475
C 0.6577 1.4224 3.5354
H 0.8815 2.3456 4.1245
H 1.5806 0.7970 3.5028
H -0.1573 0.8590 4.0451
H -0.7822 3.7585 2.2470
H -1.6429 2.4075 3.0992
H -2.0294 3.2781 0.3223
H -2.8448 1.9166 1.1896
S -2.4034 0.7281 -2.0770
O -2.0926 2.0210 -2.4646
O -1.9584 -0.3349 -2.8482
C -4.0665 0.5827 -1.8118
H -4.2972 0.2348 -0.7728
H -4.5437 -0.1524 -2.5034
H -4.6018 1.5535 -1.9441
H 1.4789 5.1280 1.6521
O 1.5645 4.7447 2.4812
H 1.5333 3.7381 2.2465
53
Frame 17
C 1.1212 -3.3159 -2.4371
C 2.2567 -2.4262 -2.0654
C 2.1431 -1.3887 -1.2214
C 3.5546 -2.7665 -2.7004
C 0.8888 -0.9622 -0.5591
H 3.0295 -0.7728 -0.9878
H 4.3426 -2.0135 -2.4572
H 3.4371 -2.8092 -3.8117
H 3.9056 -3.7688 -2.3494
H 0.4301 -3.4372 -1.5594
H 1.5174 -4.3373 -2.6878
C 0.3374 -2.7809 -3.6115
H -0.4304 -3.5256 -3.9309
H 1.0139 -2.5771 -4.4757
H -0.1878 -1.8311 -3.3361
C 1.1404 0.0690 0.5236
H 0.3576 -1.8519 -0.1234
H 0.1935 -0.5353 -1.3360
C -0.1168 0.6127 1.1775
H 1.7102 0.9407 0.0954
H 1.7887 -0.3765 1.3236
C 0.2758 1.8535 2.1185
C -0.9306 -0.4601 1.8887
C -1.0107 1.3510 0.1484
H -1.5697 -0.9918 1.1305
H -1.6309 0.0533 2.6020
C -0.1467 -1.5123 2.6325
H -0.8448 -2.1412 3.2393
H 0.6058 -1.0615 3.3214
H 0.3962 -2.1842 1.9242
C -1.8541 2.3582 0.9382
O -1.8594 0.4456 -0.5565
H -0.3532 1.8838 -0.5942
C -1.0565 2.6741 2.1882
O 1.2629 2.5720 1.5509
C 0.6538 1.4212 3.5369
H 0.8768 2.3426 4.1287
H 1.5762 0.7952 3.5056
H -0.1628 0.8576 4.0440
H -0.7863 3.7588 2.2416
H -1.6433 2.4100 3.1003
H -2.0382 3.2721 0.3228
H -2.8458 1.9078 1.1936
S -2.4045 0.7306 -2.0765
O -2.1002 2.0270 -2.4593
O -1.9564 -0.3270 -2.8540
C -4.0671 0.5772 -1.8094
H -4.2948 0.2289 -0.7698
H -4.5414 -0.1608 -2.4999
H -4.6072 1.5455 -1.9419
H 1.4876 5.1141 1.6124
O 1.5924 4.7531 2.4583
H 1.5433 3.7602 2.2648
53
Frame 18
C 1.1212 -3.3126 -2.4403
C 2.2575 -2.4255 -2.0646
C 2.1440 -1.3897 -1.2184
C 3.5560 -2.7664 -2.6980
C 0.8890 -0.9627 -0.5578
H 3.0309 -0.7756 -0.9818
H 4.3449 -2.0155 -2.4512
H 3.4406 -2.8058 -3.8097
H 3.9045 -3.7704 -2.3490
H 0.4283 -3.4346 -1.5642
H 1.5161 -4.3342 -2.6925
C 0.3404 -2.7738 -3.6152
H -0.4282 -3.5166 -3.9376
H 1.0188 -2.5693 -4.4778
H -0.1837 -1.8237 -3.3388
C 1.1395 0.0672 0.5264
H 0.3563 -1.8525 -0.1237
H 0.1953 -0.5345 -1.3354
C -0.1181 0.6111 1.1790
H 1.7103 0.9395 0.1004
H 1.7864 -0.3796 1.3269
C 0.2763 1.8548 2.1187
C -0.9326 -0.4608 1.8905
C -1.0111 1.3490 0.1497
H -1.5726 -0.9921 1.1327
H -1.6322 0.0532 2.6040
C -0.1494 -1.5138 2.6340
H -0.8478 -2.1420 3.2411
H 0.6040 -1.0636 3.3224
H 0.3924 -2.1862 1.9253
C -1.8573 2.3537 0.9396
O -1.8573 0.4432 -0.5583
H -0.3533 1.8841 -0.5912
C -1.0583 2.6740 2.1876
O 1.2611 2.5719 1.5543
C 0.6498 1.4200 3.5384
H 0.8721 2.3396 4.1329
H 1.5718 0.7933 3.5084
H -0.1683 0.8562 4.0429
H -0.7904 3.7591 2.2362
H -1.6437 2.4125 3.1014
H -2.0470 3.2661 0.3234
H -2.8467 1.8990 1.1976
S -2.4056 0.7331 -2.0760
O -2.1078 2.0330 -2.4539
O -1.9545 -0.3192 -2.8598
C -4.0677 0.5717 -1.8069
H -4.2924 0.2229 -0.7669
H -4.5392 -0.1692 -2.4964
H -4.6126 1.5374 -1.9397
H 1.4964 5.1002 1.5727
O 1.6202 4.7616 2.4354
H 1.5533 3.7823 2.2831
53
Frame 19
C 1.1211 -3.3093 -2.4436
C 2.2583 -2.4249 -2.0638
C 2.1448 -1.3907 -1.2155
C 3.5575 -2.7664 -2.6956
C 0.8891 -0.9633 -0.5564
H 3.0322 -0.7784 -0.9757
H 4.3473 -2.0174 -2.4451
H 3.4441 -2.8024 -3.8078
H 3.9035 -3.7720 -2.3487
H 0.4264 -3.4321 -1.5690
H 1.5147 -4.3311 -2.6972
C 0.3433 -2.7667 -3.6188
H -0.4259 -3.5076 -3.9443
H 1.0237 -2.5614 -4.4798
H -0.1797 -1.8162 -3.3415
C 1.1386 0.0654 0.5293
H 0.3549 -1.8530 -0.1240
H 0.1971 -0.5338 -1.3348
C -0.1193 0.6096 1.1806
H 1.7105 0.9382 0.1054
H 1.7842 -0.3826 1.3301
C 0.2768 1.8562 2.1190
C -0.9345 -0.4614 1.8923
C -1.0116 1.3471 0.1509
H -1.5754 -0.9923 1.1350
H -1.6334 0.0532 2.6061
C -0.1521 -1.5152 2.6354
H -0.8507 -2.1428 3.2430
H 0.6021 -1.0658 3.3235
H 0.3886 -2.1881 1.9264
C -1.8606 2.3491 0.9411
O -1.8552 0.4408 -0.5602
H -0.3535 1.8843 -0.5882
C -1.0601 2.6740 2.1871
O 1.2594 2.5718 1.5576
C 0.6458 1.4187 3.5399
H 0.8675 2.3366 4.1372
H 1.5675 0.7915 3.5113
H -0.1739 0.8547 4.0418
H -0.7944 3.7593 2.2309
H -1.6442 2.4150 3.1024
H -2.0558 3.2601 0.3239
H -2.8476 1.8903 1.2017
S -2.4067 0.7357 -2.0755
O -2.1153 2.0390 -2.4485
O -1.9525 -0.3113 -2.8655
C -4.0682 0.5663 -1.8045
H -4.2900 0.2170 -0.7639
H -4.5369 -0.1776 -2.4929
H -4.6179 1.5294 -1.9375
H 1.5051 5.0864 1.5329
O 1.6480 4.7700 2.4126
H 1.5633 3.8044 2.3015
53
Frame 20
C 1.1211 -3.3060 -2.4469
C 2.2591 -2.4242 -2.0630
C 2.1456 -1.3917 -1.2126
C 3.5589 -2.7663 -2.6932
C 0.8893 -0.9638 -0.5550
H 3.0336 -0.7812 -0.9697
H 4.3497 -2.0194 -2.4391
H 3.4476 -2.7990 -3.8058
H 3.9024 -3.7736 -2.3484
H 0.4245 -3.4295 -1.5738
H 1.5134 -4.3280 -2.7019
C 0.3463 -2.7596 -3.6225
H -0.4237 -3.4986 -3.9510
H 1.0286 -2.5536 -4.4818
H -0.1757 -1.8088 -3.3442
C 1.1377 0.0636 0.5321
H 0.3536 -1.8535 -0.1243
H 0.1989 -0.5330 -1.3342
C -0.1206 0.6080 1.1821
H 1.7106 0.9369 0.1104
H 1.7819 -0.3857 1.3334
C 0.2773 1.8575 2.1192
C -0.9365 -0.4621 1.8941
C -1.0120 1.3451 0.1521
H -1.5783 -0.9926 1.1372
H -1.6347 0.0532 2.6081
C -0.1548 -1.5167 2.6369
H -0.8537 -2.1436 3.2449
H 0.6002 -1.0679 3.3245
H 0.3848 -2.1901 1.9275
C -1.8639 2.3446 0.9425
O -1.8531 0.4384 -0.5620
H -0.3536 1.8845 -0.5852
C -1.0619 2.6739 2.1865
O 1.2576 2.5717 1.5610
C 0.6418 1.4175 3.5414
H 0.8628 2.3336 4.1414
H 1.5631 0.7896 3.5141
H -0.1794 0.8533 4.0407
H -0.7985 3.7596 2.2255
H -1.6446 2.4175 3.1035
H -2.0646 3.2541 0.3245
H -2.8485 1.8815 1.2057
S -2.4078 0.7382 -2.0750
O -2.1229 2.0450 -2.4431
O -1.9506 -0.3035 -2.8713
C -4.0688 0.5608 -1.8021
H -4.2876 0.2111 -0.7610
H -4.5347 -0.1860 -2.4894
H -4.6233 1.5213 -1.9353
H 1.5139 5.0725 1.4932
O 1.6758 4.7785 2.3897
H 1.5733 3.8265 2.3198
