28
M19
H               -0.6870     -0.3502     -2.5884
C                0.2231     -0.6912     -2.0329
H                0.5857     -1.6352     -2.5109
C               -0.0894     -0.9063     -0.5784
H                1.0226      0.0818     -2.1566
H               -0.8093     -1.7658     -0.4862
Si              -0.9873      0.6032      0.0285
C                1.1673     -1.3408      0.1894
C                2.1514     -0.2133      0.4772
H                1.7177     -2.0888     -0.4653
O                0.7888     -1.9865      1.3764
H                2.6355      0.1480     -0.4592
H                2.9188     -0.6362      1.1937
H                1.6370      0.6444      0.9738
C               -2.7346      0.4790     -0.5532
C               -0.2921      2.1467     -0.6957
C               -0.9913      0.7316      1.8507
H               -2.0147      0.6510      2.2789
H               -0.5481      1.6887      2.2051
H               -0.3740     -0.1034      2.2765
H               -2.7928      0.4545     -1.6646
H               -3.3419      1.3426     -0.2012
H               -3.2150     -0.4497     -0.1704
H               -0.4826      2.2024     -1.7912
H                0.8116      2.1909     -0.5448
H               -0.7353      3.0527     -0.2258
H                1.6137     -2.1504      1.8987
H                2.8218     -2.0997      2.3761
28
M18
H               -0.6865     -0.3543     -2.5922
C                0.2241     -0.6889     -2.0342
H                0.5936     -1.6305     -2.5106
C               -0.0900     -0.9050     -0.5805
H                1.0184      0.0889     -2.1572
H               -0.8091     -1.7652     -0.4897
Si              -0.9885      0.6026      0.0276
C                1.1661     -1.3414      0.1907
C                2.1528     -0.2130      0.4690
H                1.7139     -2.0909     -0.4656
O                0.7907     -1.9802      1.3773
H                2.6315      0.1455     -0.4708
H                2.9248     -0.6322      1.1805
H                1.6414      0.6462      0.9658
C               -2.7364      0.4793     -0.5534
C               -0.2953      2.1481     -0.6951
C               -0.9920      0.7301      1.8500
H               -2.0150      0.6485      2.2787
H               -0.5490      1.6870      2.2050
H               -0.3738     -0.1054      2.2739
H               -2.7947      0.4507     -1.6646
H               -3.3423      1.3450     -0.2046
H               -3.2181     -0.4472     -0.1672
H               -0.4894      2.2064     -1.7897
H                0.8088      2.1918     -0.5477
H               -0.7368      3.0529     -0.2216
H                1.6388     -2.1540      1.9247
H                2.8115     -2.1148      2.4019
28
M17
H               -0.6859     -0.3583     -2.5960
C                0.2251     -0.6866     -2.0355
H                0.6016     -1.6258     -2.5103
C               -0.0905     -0.9037     -0.5825
H                1.0142      0.0960     -2.1579
H               -0.8089     -1.7645     -0.4931
Si              -0.9898      0.6021      0.0267
C                1.1650     -1.3419      0.1919
C                2.1542     -0.2127      0.4608
H                1.7101     -2.0931     -0.4660
O                0.7925     -1.9740      1.3783
H                2.6276      0.1430     -0.4824
H                2.9309     -0.6282      1.1674
H                1.6457      0.6480      0.9578
C               -2.7383      0.4795     -0.5536
C               -0.2985      2.1495     -0.6945
C               -0.9926      0.7286      1.8492
H               -2.0153      0.6460      2.2785
H               -0.5499      1.6854      2.2048
H               -0.3737     -0.1075      2.2712
H               -2.7965      0.4470     -1.6645
H               -3.3426      1.3474     -0.2081
H               -3.2212     -0.4446     -0.1640
H               -0.4961      2.2104     -1.7881
H                0.8059      2.1927     -0.5505
H               -0.7384      3.0530     -0.2175
H                1.6639     -2.1576      1.9506
H                2.8012     -2.1299      2.4277
28
M16
H               -0.6854     -0.3624     -2.5998
C                0.2261     -0.6844     -2.0368
H                0.6095     -1.6211     -2.5100
C               -0.0911     -0.9024     -0.5846
H                1.0101      0.1031     -2.1585
H               -0.8087     -1.7639     -0.4966
Si              -0.9910      0.6015      0.0258
C                1.1638     -1.3425      0.1932
C                2.1556     -0.2124      0.4525
H                1.7063     -2.0952     -0.4663
O                0.7944     -1.9677      1.3792
H                2.6236      0.1405     -0.4941
H                2.9369     -0.6242      1.1542
H                1.6501      0.6498      0.9497
C               -2.7401      0.4798     -0.5538
C               -0.3017      2.1509     -0.6939
C               -0.9933      0.7271      1.8485
H               -2.0157      0.6435      2.2783
H               -0.5508      1.6837      2.2047
H               -0.3735     -0.1095      2.2686
H               -2.7984      0.4432     -1.6645
H               -3.3430      1.3498     -0.2115
H               -3.2243     -0.4421     -0.1608
H               -0.5029      2.2144     -1.7866
H                0.8031      2.1936     -0.5534
H               -0.7399      3.0532     -0.2133
H                1.6890     -2.1612      1.9766
H                2.7909     -2.1450      2.4535
28
M15
H               -0.6849     -0.3665     -2.6036
C                0.2270     -0.6821     -2.0381
H                0.6174     -1.6164     -2.5097
C               -0.0917     -0.9011     -0.5866
H                1.0059      0.1102     -2.1592
H               -0.8085     -1.7633     -0.5000
Si              -0.9922      0.6009      0.0249
C                1.1626     -1.3431      0.1944
C                2.1570     -0.2121      0.4443
H                1.7025     -2.0974     -0.4667
O                0.7962     -1.9615      1.3802
H                2.6197      0.1380     -0.5057
H                2.9430     -0.6201      1.1410
H                1.6545      0.6517      0.9417
C               -2.7419      0.4801     -0.5541
C               -0.3049      2.1523     -0.6934
C               -0.9940      0.7256      1.8477
H               -2.0160      0.6410      2.2781
H               -0.5517      1.6820      2.2046
H               -0.3733     -0.1116      2.2660
H               -2.8002      0.4395     -1.6645
H               -3.3433      1.3522     -0.2149
H               -3.2274     -0.4395     -0.1577
H               -0.5096      2.2183     -1.7851
H                0.8002      2.1945     -0.5562
H               -0.7414      3.0533     -0.2091
H                1.7141     -2.1648      2.0026
H                2.7807     -2.1602      2.4793
28
M14
H               -0.6843     -0.3705     -2.6074
C                0.2280     -0.6798     -2.0395
H                0.6254     -1.6117     -2.5095
C               -0.0923     -0.8998     -0.5887
H                1.0017      0.1173     -2.1598
H               -0.8083     -1.7627     -0.5035
Si              -0.9935      0.6004      0.0240
C                1.1615     -1.3437      0.1957
C                2.1585     -0.2118      0.4361
H                1.6986     -2.0995     -0.4670
O                0.7981     -1.9552      1.3811
H                2.6157      0.1355     -0.5173
H                2.9490     -0.6161      1.1279
H                1.6588      0.6535      0.9337
C               -2.7437      0.4803     -0.5543
C               -0.3081      2.1537     -0.6928
C               -0.9947      0.7241      1.8470
H               -2.0163      0.6385      2.2778
H               -0.5526      1.6803      2.2045
H               -0.3731     -0.1136      2.2633
H               -2.8021      0.4357     -1.6645
H               -3.3437      1.3546     -0.2184
H               -3.2305     -0.4370     -0.1545
H               -0.5164      2.2223     -1.7836
H                0.7974      2.1954     -0.5591
H               -0.7430      3.0535     -0.2049
H                1.7392     -2.1683      2.0285
H                2.7704     -2.1753      2.5050
28
M13
H               -0.6838     -0.3746     -2.6112
C                0.2290     -0.6775     -2.0408
H                0.6333     -1.6070     -2.5092
C               -0.0928     -0.8985     -0.5907
H                0.9975      0.1244     -2.1605
H               -0.8081     -1.7620     -0.5069
Si              -0.9947      0.5998      0.0231
C                1.1603     -1.3442      0.1969
C                2.1599     -0.2115      0.4279
H                1.6948     -2.1017     -0.4674
O                0.7999     -1.9490      1.3821
H                2.6118      0.1330     -0.5289
H                2.9551     -0.6121      1.1147
H                1.6632      0.6553      0.9257
C               -2.7456      0.4806     -0.5545
C               -0.3113      2.1551     -0.6922
C               -0.9953      0.7226      1.8462
H               -2.0166      0.6360      2.2776
H               -0.5535      1.6787      2.2043
H               -0.3730     -0.1157      2.2607
H               -2.8039      0.4320     -1.6644
H               -3.3440      1.3570     -0.2218
H               -3.2336     -0.4344     -0.1513
H               -0.5231      2.2263     -1.7820
H                0.7945      2.1963     -0.5619
H               -0.7445      3.0536     -0.2008
H                1.7643     -2.1719      2.0545
H                2.7601     -2.1904      2.5308
28
M12
H               -0.6833     -0.3786     -2.6150
C                0.2300     -0.6752     -2.0421
H                0.6413     -1.6023     -2.5089
C               -0.0934     -0.8972     -0.5928
H                0.9933      0.1315     -2.1611
H               -0.8079     -1.7614     -0.5104
Si              -0.9959      0.5992      0.0222
C                1.1591     -1.3448      0.1982
C                2.1613     -0.2112      0.4197
H                1.6910     -2.1038     -0.4677
O                0.8018     -1.9427      1.3830
H                2.6078      0.1305     -0.5405
H                2.9611     -0.6081      1.1015
H                1.6675      0.6571      0.9177
C               -2.7474      0.4809     -0.5547
C               -0.3145      2.1565     -0.6916
C               -0.9960      0.7211      1.8455
H               -2.0169      0.6335      2.2774
H               -0.5544      1.6770      2.2042
H               -0.3728     -0.1177      2.2580
H               -2.8058      0.4282     -1.6644
H               -3.3444      1.3594     -0.2252
H               -3.2367     -0.4319     -0.1481
H               -0.5299      2.2303     -1.7805
H                0.7917      2.1972     -0.5648
H               -0.7461      3.0538     -0.1966
H                1.7894     -2.1755      2.0805
H                2.7498     -2.2055      2.5566
28
M11
H               -0.6827     -0.3827     -2.6188
C                0.2310     -0.6730     -2.0434
H                0.6492     -1.5976     -2.5086
C               -0.0940     -0.8959     -0.5949
H                0.9892      0.1386     -2.1617
H               -0.8077     -1.7608     -0.5139
Si              -0.9972      0.5987      0.0213
C                1.1580     -1.3454      0.1995
C                2.1627     -0.2109      0.4114
H                1.6872     -2.1060     -0.4680
O                0.8036     -1.9365      1.3840
H                2.6039      0.1280     -0.5522
H                2.9671     -0.6041      1.0884
H                1.6719      0.6589      0.9096
C               -2.7492      0.4811     -0.5549
C               -0.3177      2.1579     -0.6910
C               -0.9967      0.7196      1.8448
H               -2.0173      0.6310      2.2772
H               -0.5553      1.6753      2.2041
H               -0.3726     -0.1197      2.2554
H               -2.8077      0.4244     -1.6644
H               -3.3448      1.3618     -0.2287
H               -3.2398     -0.4294     -0.1449
H               -0.5366      2.2343     -1.7790
H                0.7888      2.1981     -0.5676
H               -0.7476      3.0540     -0.1924
H                1.8145     -2.1791      2.1064
H                2.7395     -2.2206      2.5824
28
M10
H               -0.6822     -0.3868     -2.6226
C                0.2320     -0.6707     -2.0447
H                0.6571     -1.5929     -2.5083
C               -0.0946     -0.8946     -0.5969
H                0.9850      0.1457     -2.1624
H               -0.8075     -1.7602     -0.5173
Si              -0.9984      0.5981      0.0204
C                1.1568     -1.3460      0.2007
C                2.1641     -0.2106      0.4032
H                1.6834     -2.1081     -0.4684
O                0.8055     -1.9302      1.3849
H                2.5999      0.1255     -0.5638
H                2.9732     -0.6001      1.0752
H                1.6763      0.6607      0.9016
C               -2.7510      0.4814     -0.5551
C               -0.3209      2.1593     -0.6904
C               -0.9974      0.7181      1.8440
H               -2.0176      0.6285      2.2770
H               -0.5562      1.6736      2.2040
H               -0.3724     -0.1218      2.2528
H               -2.8095      0.4207     -1.6644
H               -3.3451      1.3642     -0.2321
H               -3.2429     -0.4268     -0.1417
H               -0.5434      2.2383     -1.7775
H                0.7860      2.1990     -0.5705
H               -0.7491      3.0541     -0.1882
H                1.8396     -2.1827      2.1324
H                2.7292     -2.2357      2.6082
28
M9
H               -0.6817     -0.3908     -2.6264
C                0.2329     -0.6684     -2.0460
H                0.6651     -1.5882     -2.5080
C               -0.0951     -0.8934     -0.5990
H                0.9808      0.1528     -2.1630
H               -0.8074     -1.7595     -0.5208
Si              -0.9996      0.5975      0.0194
C                1.1556     -1.3465      0.2020
C                2.1655     -0.2104      0.3950
H                1.6796     -2.1103     -0.4687
O                0.8073     -1.9240      1.3859
H                2.5960      0.1230     -0.5754
H                2.9792     -0.5960      1.0620
H                1.6806      0.6626      0.8936
C               -2.7529      0.4817     -0.5554
C               -0.3242      2.1606     -0.6899
C               -0.9980      0.7166      1.8433
H               -2.0179      0.6260      2.2768
H               -0.5571      1.6720      2.2038
H               -0.3723     -0.1238      2.2501
H               -2.8114      0.4169     -1.6643
H               -3.3455      1.3666     -0.2355
H               -3.2460     -0.4243     -0.1386
H               -0.5501      2.2422     -1.7759
H                0.7831      2.1999     -0.5733
H               -0.7507      3.0543     -0.1841
H                1.8646     -2.1863      2.1584
H                2.7190     -2.2509      2.6340
28
M8
H               -0.6812     -0.3949     -2.6302
C                0.2339     -0.6661     -2.0473
H                0.6730     -1.5835     -2.5077
C               -0.0957     -0.8921     -0.6010
H                0.9766      0.1599     -2.1637
H               -0.8072     -1.7589     -0.5242
Si              -1.0008      0.5969      0.0185
C                1.1544     -1.3471      0.2032
C                2.1669     -0.2101      0.3868
H                1.6758     -2.1124     -0.4691
O                0.8092     -1.9177      1.3868
H                2.5920      0.1205     -0.5870
H                2.9853     -0.5920      1.0488
H                1.6850      0.6644      0.8856
C               -2.7547      0.4820     -0.5556
C               -0.3274      2.1620     -0.6893
C               -0.9987      0.7151      1.8425
H               -2.0182      0.6235      2.2766
H               -0.5580      1.6703      2.2037
H               -0.3721     -0.1259      2.2475
H               -2.8132      0.4132     -1.6643
H               -3.3458      1.3690     -0.2389
H               -3.2491     -0.4217     -0.1354
H               -0.5569      2.2462     -1.7744
H                0.7803      2.2008     -0.5762
H               -0.7522      3.0544     -0.1799
H                1.8897     -2.1899      2.1844
H                2.7087     -2.2660      2.6598
28
M7
H               -0.6806     -0.3990     -2.6340
C                0.2349     -0.6639     -2.0486
H                0.6809     -1.5788     -2.5074
C               -0.0963     -0.8908     -0.6031
H                0.9725      0.1670     -2.1643
H               -0.8070     -1.7583     -0.5277
Si              -1.0021      0.5964      0.0176
C                1.1533     -1.3477      0.2045
C                2.1683     -0.2098      0.3785
H                1.6720     -2.1146     -0.4694
O                0.8110     -1.9115      1.3878
H                2.5881      0.1180     -0.5987
H                2.9913     -0.5880      1.0357
H                1.6894      0.6662      0.8775
C               -2.7565      0.4822     -0.5558
C               -0.3306      2.1634     -0.6887
C               -0.9994      0.7136      1.8418
H               -2.0186      0.6210      2.2764
H               -0.5589      1.6686      2.2036
H               -0.3719     -0.1279      2.2449
H               -2.8151      0.4094     -1.6643
H               -3.3462      1.3714     -0.2424
H               -3.2522     -0.4192     -0.1322
H               -0.5636      2.2502     -1.7729
H                0.7774      2.2017     -0.5790
H               -0.7537      3.0546     -0.1757
H                1.9148     -2.1935      2.2103
H                2.6984     -2.2811      2.6856
28
M6
H               -0.6801     -0.4030     -2.6378
C                0.2359     -0.6616     -2.0499
H                0.6889     -1.5741     -2.5071
C               -0.0969     -0.8895     -0.6052
H                0.9683      0.1741     -2.1649
H               -0.8068     -1.7577     -0.5312
Si              -1.0033      0.5958      0.0167
C                1.1521     -1.3483      0.2058
C                2.1697     -0.2095      0.3703
H                1.6682     -2.1167     -0.4697
O                0.8129     -1.9052      1.3887
H                2.5841      0.1155     -0.6103
H                2.9973     -0.5840      1.0225
H                1.6937      0.6680      0.8695
C               -2.7583      0.4825     -0.5560
C               -0.3338      2.1648     -0.6881
C               -1.0001      0.7121      1.8411
H               -2.0189      0.6185      2.2762
H               -0.5598      1.6669      2.2035
H               -0.3717     -0.1299      2.2422
H               -2.8170      0.4056     -1.6643
H               -3.3466      1.3738     -0.2458
H               -3.2553     -0.4167     -0.1290
H               -0.5704      2.2542     -1.7714
H                0.7746      2.2026     -0.5819
H               -0.7553      3.0548     -0.1715
H                1.9399     -2.1971      2.2363
H                2.6881     -2.2962      2.7114
28
M5
H               -0.6796     -0.4071     -2.6416
C                0.2369     -0.6593     -2.0512
H                0.6968     -1.5694     -2.5068
C               -0.0974     -0.8882     -0.6072
H                0.9641      0.1812     -2.1656
H               -0.8066     -1.7570     -0.5346
Si              -1.0045      0.5952      0.0158
C                1.1509     -1.3488      0.2070
C                2.1711     -0.2092      0.3621
H                1.6644     -2.1189     -0.4701
O                0.8147     -1.8990      1.3897
H                2.5802      0.1130     -0.6219
H                3.0034     -0.5800      1.0093
H                1.6981      0.6698      0.8615
C               -2.7602      0.4828     -0.5562
C               -0.3370      2.1662     -0.6875
C               -1.0007      0.7106      1.8403
H               -2.0192      0.6160      2.2760
H               -0.5607      1.6653      2.2033
H               -0.3716     -0.1320      2.2396
H               -2.8188      0.4019     -1.6642
H               -3.3469      1.3762     -0.2492
H               -3.2584     -0.4141     -0.1258
H               -0.5771      2.2582     -1.7698
H                0.7717      2.2035     -0.5847
H               -0.7568      3.0549     -0.1674
H                1.9650     -2.2007      2.2623
H                2.6778     -2.3113      2.7372
28
M4
H               -0.6790     -0.4111     -2.6454
C                0.2379     -0.6570     -2.0526
H                0.7048     -1.5647     -2.5066
C               -0.0980     -0.8869     -0.6093
H                0.9599      0.1883     -2.1662
H               -0.8064     -1.7564     -0.5381
Si              -1.0058      0.5947      0.0149
C                1.1498     -1.3494      0.2083
C                2.1726     -0.2089      0.3539
H                1.6605     -2.1210     -0.4704
O                0.8166     -1.8927      1.3906
H                2.5762      0.1105     -0.6335
H                3.0094     -0.5760      0.9962
H                1.7024      0.6716      0.8535
C               -2.7620      0.4830     -0.5564
C               -0.3402      2.1676     -0.6869
C               -1.0014      0.7091      1.8396
H               -2.0195      0.6135      2.2757
H               -0.5616      1.6636      2.2032
H               -0.3714     -0.1340      2.2369
H               -2.8207      0.3981     -1.6642
H               -3.3473      1.3786     -0.2527
H               -3.2615     -0.4116     -0.1226
H               -0.5839      2.2622     -1.7683
H                0.7689      2.2044     -0.5876
H               -0.7584      3.0551     -0.1632
H                1.9901     -2.2042      2.2882
H                2.6675     -2.3264      2.7629
28
M3
H               -0.6785     -0.4152     -2.6492
C                0.2388     -0.6547     -2.0539
H                0.7127     -1.5600     -2.5063
C               -0.0986     -0.8856     -0.6113
H                0.9557      0.1954     -2.1669
H               -0.8062     -1.7558     -0.5415
Si              -1.0070      0.5941      0.0140
C                1.1486     -1.3500      0.2095
C                2.1740     -0.2086      0.3457
H                1.6567     -2.1232     -0.4708
O                0.8184     -1.8865      1.3916
H                2.5723      0.1080     -0.6451
H                3.0155     -0.5719      0.9830
H                1.7068      0.6735      0.8455
C               -2.7638      0.4833     -0.5567
C               -0.3434      2.1690     -0.6864
C               -1.0021      0.7076      1.8388
H               -2.0198      0.6110      2.2755
H               -0.5625      1.6619      2.2031
H               -0.3712     -0.1361      2.2343
H               -2.8225      0.3944     -1.6642
H               -3.3476      1.3810     -0.2561
H               -3.2646     -0.4090     -0.1195
H               -0.5906      2.2661     -1.7668
H                0.7660      2.2053     -0.5904
H               -0.7599      3.0552     -0.1590
H                2.0152     -2.2078      2.3142
H                2.6573     -2.3416      2.7887
28
M2
H               -0.6780     -0.4193     -2.6530
C                0.2398     -0.6525     -2.0552
H                0.7206     -1.5553     -2.5060
C               -0.0992     -0.8843     -0.6134
H                0.9516      0.2025     -2.1675
H               -0.8060     -1.7552     -0.5450
Si              -1.0082      0.5935      0.0131
C                1.1474     -1.3506      0.2108
C                2.1754     -0.2083      0.3374
H                1.6529     -2.1253     -0.4711
O                0.8203     -1.8802      1.3925
H                2.5683      0.1055     -0.6568
H                3.0215     -0.5679      0.9698
H                1.7112      0.6753      0.8374
C               -2.7656      0.4836     -0.5569
C               -0.3466      2.1704     -0.6858
C               -1.0028      0.7061      1.8381
H               -2.0202      0.6085      2.2753
H               -0.5634      1.6602      2.2030
H               -0.3710     -0.1381      2.2317
H               -2.8244      0.3906     -1.6642
H               -3.3480      1.3834     -0.2595
H               -3.2677     -0.4065     -0.1163
H               -0.5974      2.2701     -1.7653
H                0.7632      2.2062     -0.5933
H               -0.7614      3.0554     -0.1548
H                2.0403     -2.2114      2.3402
H                2.6470     -2.3567      2.8145
28
M1
H               -0.6774     -0.4233     -2.6568
C                0.2408     -0.6502     -2.0565
H                0.7286     -1.5506     -2.5057
C               -0.0997     -0.8830     -0.6154
H                0.9474      0.2096     -2.1682
H               -0.8058     -1.7545     -0.5484
Si              -1.0095      0.5930      0.0122
C                1.1463     -1.3511      0.2120
C                2.1768     -0.2080      0.3292
H                1.6491     -2.1275     -0.4715
O                0.8221     -1.8740      1.3935
H                2.5644      0.1030     -0.6684
H                3.0276     -0.5639      0.9567
H                1.7155      0.6771      0.8294
C               -2.7675      0.4838     -0.5571
C               -0.3498      2.1718     -0.6852
C               -1.0034      0.7046      1.8373
H               -2.0205      0.6060      2.2751
H               -0.5643      1.6586      2.2028
H               -0.3709     -0.1402      2.2290
H               -2.8262      0.3869     -1.6641
H               -3.3483      1.3858     -0.2630
H               -3.2708     -0.4039     -0.1131
H               -0.6041      2.2741     -1.7637
H                0.7603      2.2071     -0.5961
H               -0.7630      3.0555     -0.1507
H                2.0654     -2.2150      2.3661
H                2.6367     -2.3718      2.8403
28
1_prof6
H               -0.6769     -0.4274     -2.6606
C                0.2418     -0.6479     -2.0578
H                0.7365     -1.5459     -2.5054
C               -0.1003     -0.8817     -0.6175
H                0.9432      0.2167     -2.1688
H               -0.8056     -1.7539     -0.5519
Si              -1.0107      0.5924      0.0113
C                1.1451     -1.3517      0.2133
C                2.1782     -0.2077      0.3210
H                1.6453     -2.1296     -0.4718
O                0.8240     -1.8677      1.3944
H                2.5604      0.1005     -0.6800
H                3.0336     -0.5599      0.9435
H                1.7199      0.6789      0.8214
C               -2.7693      0.4841     -0.5573
C               -0.3530      2.1732     -0.6846
C               -1.0041      0.7031      1.8366
H               -2.0208      0.6035      2.2749
H               -0.5652      1.6569      2.2027
H               -0.3707     -0.1422      2.2264
H               -2.8281      0.3831     -1.6641
H               -3.3487      1.3882     -0.2664
H               -3.2739     -0.4014     -0.1099
H               -0.6109      2.2781     -1.7622
H                0.7575      2.2080     -0.5990
H               -0.7645      3.0557     -0.1465
H                2.0905     -2.2186      2.3921
H                2.6264     -2.3869      2.8661
