19
Frame 1
C -0.8884 -1.6882 0.1797
C 0.2103 -0.8958 0.8001
C 0.7290 -1.0826 2.0077
C 0.6890 0.1794 -0.1993
H 0.3819 -1.8657 2.6925
H 1.5465 -0.4483 2.3724
O 1.9531 0.4799 -0.2430
O -0.0634 1.4435 0.3374
C 0.4549 2.6523 -0.1021
H 1.5482 2.5851 -0.3402
H 0.2934 3.4041 0.7160
H -0.1005 3.0013 -1.0172
H -0.6557 -2.7817 0.1809
C -1.0076 -1.1594 -1.2655
H -1.8500 -1.5392 0.7314
H -2.0484 -0.7647 -1.4355
H -0.8572 -2.0066 -1.9916
N 0.0250 -0.1708 -1.5082
H -0.3601 0.6575 -1.9154
19
Frame 2
C -0.8845 -1.6884 0.1777
C 0.2194 -0.9022 0.7976
C 0.7360 -1.0899 2.0061
C 0.7014 0.1672 -0.2020
H 0.3827 -1.8688 2.6925
H 1.5570 -0.4599 2.3704
O 1.9562 0.4886 -0.2372
O -0.0779 1.4465 0.3442
C 0.4340 2.6533 -0.0981
H 1.5269 2.5897 -0.3417
H 0.2768 3.4100 0.7173
H -0.1248 3.0019 -1.0121
H -0.6561 -2.7829 0.1760
C -1.0033 -1.1556 -1.2664
H -1.8445 -1.5366 0.7311
H -2.0399 -0.7487 -1.4319
H -0.8636 -2.0023 -1.9952
N 0.0396 -0.1767 -1.5091
H -0.3354 0.6547 -1.9192
19
Frame 3
C -0.8812 -1.6878 0.1761
C 0.2287 -0.9082 0.7948
C 0.7438 -1.0970 2.0037
C 0.7136 0.1552 -0.2056
H 0.3843 -1.8716 2.6917
H 1.5681 -0.4710 2.3677
O 1.9587 0.4980 -0.2328
O -0.0937 1.4493 0.3492
C 0.4134 2.6546 -0.0929
H 1.5055 2.5939 -0.3425
H 0.2616 3.4143 0.7216
H -0.1487 3.0057 -1.0048
H -0.6594 -2.7835 0.1736
C -0.9982 -1.1533 -1.2678
H -1.8393 -1.5297 0.7306
H -2.0312 -0.7366 -1.4311
H -0.8668 -2.0001 -1.9976
N 0.0534 -0.1832 -1.5106
H -0.3124 0.6511 -1.9234
19
Frame 4
C -0.8784 -1.6867 0.1747
C 0.2377 -0.9136 0.7913
C 0.7519 -1.1026 2.0007
C 0.7254 0.1431 -0.2106
H 0.3868 -1.8724 2.6909
H 1.5797 -0.4803 2.3634
O 1.9603 0.5070 -0.2300
O -0.1112 1.4515 0.3513
C 0.3932 2.6561 -0.0859
H 1.4847 2.5974 -0.3411
H 0.2476 3.4162 0.7302
H -0.1711 3.0139 -0.9947
H -0.6641 -2.7838 0.1733
C -0.9929 -1.1526 -1.2698
H -1.8347 -1.5208 0.7298
H -2.0222 -0.7272 -1.4323
H -0.8682 -2.0006 -1.9994
N 0.0666 -0.1906 -1.5133
H -0.2911 0.6460 -1.9284
19
Frame 5
C -0.8761 -1.6853 0.1737
C 0.2462 -0.9181 0.7870
C 0.7603 -1.1060 1.9967
C 0.7363 0.1312 -0.2178
H 0.3902 -1.8705 2.6901
H 1.5919 -0.4873 2.3569
O 1.9605 0.5159 -0.2301
O -0.1311 1.4535 0.3492
C 0.3743 2.6585 -0.0765
H 1.4657 2.6009 -0.3349
H 0.2344 3.4155 0.7443
H -0.1893 3.0281 -0.9819
H -0.6702 -2.7840 0.1760
C -0.9873 -1.1547 -1.2726
H -1.8307 -1.5097 0.7288
H -2.0135 -0.7227 -1.4364
H -0.8670 -2.0051 -2.0000
N 0.0784 -0.1993 -1.5179
H -0.2731 0.6391 -1.9347
19
Frame 6
C -0.8742 -1.6837 0.1731
C 0.2546 -0.9216 0.7817
C 0.7692 -1.1073 1.9916
C 0.7464 0.1192 -0.2274
H 0.3940 -1.8654 2.6892
H 1.6048 -0.4921 2.3484
O 1.9595 0.5248 -0.2338
O -0.1526 1.4554 0.3433
C 0.3566 2.6614 -0.0643
H 1.4490 2.6048 -0.3214
H 0.2197 3.4126 0.7631
H -0.2018 3.0463 -0.9675
H -0.6772 -2.7839 0.1810
C -0.9820 -1.1592 -1.2759
H -1.8268 -1.4969 0.7279
H -2.0056 -0.7228 -1.4426
H -0.8640 -2.0130 -1.9996
N 0.0885 -0.2091 -1.5242
H -0.2582 0.6307 -1.9426
19
Frame 7
C -0.8728 -1.6816 0.1731
C 0.2629 -0.9240 0.7754
C 0.7790 -1.1064 1.9852
C 0.7558 0.1072 -0.2394
H 0.3995 -1.8575 2.6880
H 1.6189 -0.4943 2.3373
O 1.9573 0.5340 -0.2407
O -0.1769 1.4566 0.3319
C 0.3397 2.6647 -0.0495
H 1.4347 2.6092 -0.2983
H 0.2008 3.4067 0.7869
H -0.2073 3.0691 -0.9519
H -0.6851 -2.7831 0.1888
C -0.9773 -1.1659 -1.2796
H -1.8231 -1.4819 0.7272
H -1.9983 -0.7254 -1.4500
H -0.8616 -2.0244 -1.9979
N 0.0980 -0.2216 -1.5325
H -0.2440 0.6186 -1.9539
19
Frame 8
C -0.8702 -1.6808 0.1726
C 0.2711 -0.9258 0.7681
C 0.7880 -1.1025 1.9786
C 0.7647 0.0950 -0.2535
H 0.4051 -1.8465 2.6870
H 1.6306 -0.4916 2.3262
O 1.9543 0.5420 -0.2513
O -0.2012 1.4579 0.3180
C 0.3248 2.6680 -0.0330
H 1.4240 2.6136 -0.2658
H 0.1776 3.4001 0.8116
H -0.2041 3.0921 -0.9381
H -0.6896 -2.7834 0.1954
C -0.9739 -1.1736 -1.2833
H -1.8181 -1.4707 0.7271
H -1.9928 -0.7297 -1.4556
H -0.8612 -2.0365 -1.9967
N 0.1050 -0.2342 -1.5420
H -0.2342 0.6065 -1.9652
19
Frame 9
C -0.8695 -1.6775 0.1735
C 0.2793 -0.9258 0.7595
C 0.7992 -1.0961 1.9697
C 0.7729 0.0828 -0.2711
H 0.4136 -1.8317 2.6851
H 1.6462 -0.4873 2.3103
O 1.9498 0.5512 -0.2660
O -0.2295 1.4585 0.2954
C 0.3096 2.6714 -0.0123
H 1.4141 2.6175 -0.2217
H 0.1494 3.3876 0.8444
H -0.1941 3.1226 -0.9192
H -0.6991 -2.7814 0.2084
C -0.9702 -1.1848 -1.2878
H -1.8144 -1.4513 0.7267
H -1.9869 -0.7385 -1.4656
H -0.8589 -2.0548 -1.9925
N 0.1123 -0.2510 -1.5545
H -0.2238 0.5886 -1.9824
19
Frame 10
C -0.8698 -1.6769 0.1741
C 0.2790 -0.9196 0.7528
C 0.7990 -1.0783 1.9643
C 0.7716 0.0789 -0.2872
H 0.4130 -1.8068 2.6867
H 1.6460 -0.4665 2.2993
O 1.9446 0.5540 -0.2845
O -0.2436 1.4598 0.2655
C 0.3111 2.6728 0.0063
H 1.4165 2.6137 -0.1985
H 0.1537 3.3600 0.8850
H -0.1805 3.1613 -0.8850
H -0.6996 -2.7802 0.2202
C -0.9698 -1.1989 -1.2919
H -1.8147 -1.4448 0.7246
H -1.9867 -0.7555 -1.4750
H -0.8567 -2.0755 -1.9878
N 0.1120 -0.2665 -1.5669
H -0.2251 0.5690 -2.0020
19
Frame 11
C -0.8701 -1.6762 0.1747
C 0.2787 -0.9133 0.7460
C 0.7988 -1.0606 1.9590
C 0.7703 0.0750 -0.3032
H 0.4125 -1.7818 2.6883
H 1.6458 -0.4458 2.2883
O 1.9395 0.5569 -0.3029
O -0.2578 1.4610 0.2357
C 0.3126 2.6741 0.0248
H 1.4188 2.6099 -0.1753
H 0.1579 3.3323 0.9256
H -0.1669 3.1999 -0.8509
H -0.7002 -2.7791 0.2320
C -0.9694 -1.2129 -1.2960
H -1.8151 -1.4382 0.7224
H -1.9865 -0.7724 -1.4843
H -0.8545 -2.0962 -1.9831
N 0.1116 -0.2819 -1.5794
H -0.2264 0.5494 -2.0216
19
Frame 12
C -0.8703 -1.6756 0.1753
C 0.2784 -0.9070 0.7393
C 0.7987 -1.0428 1.9536
C 0.7690 0.0712 -0.3193
H 0.4119 -1.7569 2.6899
H 1.6457 -0.4251 2.2772
O 1.9343 0.5597 -0.3214
O -0.2719 1.4623 0.2058
C 0.3142 2.6755 0.0434
H 1.4211 2.6060 -0.1521
H 0.1622 3.3047 0.9662
H -0.1532 3.2386 -0.8167
H -0.7007 -2.7779 0.2438
C -0.9689 -1.2270 -1.3002
H -1.8154 -1.4316 0.7203
H -1.9863 -0.7894 -1.4937
H -0.8522 -2.1169 -1.9784
N 0.1113 -0.2974 -1.5918
H -0.2277 0.5298 -2.0412
19
Frame 13
C -0.8706 -1.6750 0.1759
C 0.2781 -0.9008 0.7325
C 0.7985 -1.0251 1.9483
C 0.7677 0.0673 -0.3354
H 0.4114 -1.7320 2.6915
H 1.6455 -0.4043 2.2662
O 1.9291 0.5625 -0.3399
O -0.2861 1.4635 0.1760
C 0.3157 2.6769 0.0619
H 1.4235 2.6022 -0.1289
H 0.1665 3.2771 1.0068
H -0.1396 3.2772 -0.7826
H -0.7012 -2.7767 0.2556
C -0.9685 -1.2411 -1.3043
H -1.8158 -1.4251 0.7181
H -1.9861 -0.8063 -1.5030
H -0.8500 -2.1376 -1.9737
N 0.1109 -0.3129 -1.6043
H -0.2290 0.5102 -2.0608
19
Frame 14
C -0.8713 -1.6708 0.1771
C 0.2803 -0.8959 0.7267
C 0.8021 -1.0130 1.9426
C 0.7702 0.0627 -0.3486
H 0.4138 -1.7134 2.6912
H 1.6512 -0.3924 2.2552
O 1.9267 0.5654 -0.3546
O -0.2975 1.4646 0.1517
C 0.3113 2.6752 0.0769
H 1.4208 2.5993 -0.1048
H 0.1564 3.2522 1.0348
H -0.1312 3.3005 -0.7553
H -0.7067 -2.7723 0.2674
C -0.9671 -1.2504 -1.3071
H -1.8155 -1.4113 0.7165
H -1.9838 -0.8162 -1.5110
H -0.8483 -2.1528 -1.9682
N 0.1136 -0.3258 -1.6140
H -0.2252 0.4944 -2.0766
19
Frame 15
C -0.8721 -1.6667 0.1783
C 0.2825 -0.8911 0.7209
C 0.8057 -1.0010 1.9369
C 0.7727 0.0580 -0.3618
H 0.4163 -1.6948 2.6910
H 1.6568 -0.3806 2.2442
O 1.9244 0.5683 -0.3693
O -0.3088 1.4658 0.1273
C 0.3070 2.6736 0.0918
H 1.4181 2.5965 -0.0806
H 0.1464 3.2273 1.0628
H -0.1227 3.3238 -0.7280
H -0.7122 -2.7678 0.2792
C -0.9656 -1.2596 -1.3098
H -1.8151 -1.3976 0.7149
H -1.9815 -0.8261 -1.5190
H -0.8466 -2.1681 -1.9626
N 0.1164 -0.3386 -1.6238
H -0.2214 0.4785 -2.0924
19
Frame 16
C -0.8728 -1.6625 0.1795
C 0.2847 -0.8862 0.7151
C 0.8093 -0.9889 1.9312
C 0.7752 0.0534 -0.3750
H 0.4187 -1.6762 2.6907
H 1.6625 -0.3687 2.2332
O 1.9220 0.5712 -0.3840
O -0.3202 1.4669 0.1030
C 0.3026 2.6719 0.1068
H 1.4154 2.5936 -0.0565
H 0.1363 3.2024 1.0908
H -0.1143 3.3471 -0.7007
H -0.7177 -2.7634 0.2910
C -0.9642 -1.2689 -1.3126
H -1.8148 -1.3838 0.7133
H -1.9792 -0.8360 -1.5270
H -0.8449 -2.1833 -1.9571
N 0.1191 -0.3515 -1.6335
H -0.2176 0.4627 -2.1082
19
Frame 17
C -0.8719 -1.6608 0.1796
C 0.2876 -0.8850 0.7119
C 0.8122 -0.9838 1.9283
C 0.7789 0.0491 -0.3817
H 0.4201 -1.6668 2.6907
H 1.6666 -0.3640 2.2277
O 1.9216 0.5724 -0.3911
O -0.3268 1.4678 0.0937
C 0.2972 2.6706 0.1140
H 1.4111 2.5919 -0.0423
H 0.1256 3.1929 1.1016
H -0.1119 3.3552 -0.6895
H -0.7191 -2.7616 0.2950
C -0.9630 -1.2723 -1.3138
H -1.8129 -1.3778 0.7127
H -1.9773 -0.8386 -1.5296
H -0.8448 -2.1889 -1.9552
N 0.1214 -0.3572 -1.6380
H -0.2144 0.4566 -2.1141
19
Frame 18
C -0.8709 -1.6591 0.1797
C 0.2904 -0.8838 0.7086
C 0.8152 -0.9786 1.9254
C 0.7826 0.0448 -0.3883
H 0.4216 -1.6574 2.6908
H 1.6707 -0.3592 2.2223
O 1.9212 0.5737 -0.3983
O -0.3334 1.4688 0.0844
C 0.2918 2.6694 0.1212
H 1.4069 2.5903 -0.0280
H 0.1148 3.1834 1.1123
H -0.1096 3.3632 -0.6782
H -0.7206 -2.7597 0.2991
C -0.9619 -1.2757 -1.3151
H -1.8110 -1.3718 0.7122
H -1.9755 -0.8413 -1.5321
H -0.8447 -2.1946 -1.9534
N 0.1237 -0.3629 -1.6424
H -0.2113 0.4505 -2.1200
19
Frame 19
C -0.8700 -1.6574 0.1798
C 0.2933 -0.8826 0.7054
C 0.8181 -0.9735 1.9225
C 0.7863 0.0405 -0.3950
H 0.4230 -1.6480 2.6908
H 1.6749 -0.3545 2.2168
O 1.9207 0.5749 -0.4054
O -0.3400 1.4697 0.0751
C 0.2864 2.6681 0.1283
H 1.4026 2.5886 -0.0138
H 0.1041 3.1739 1.1231
H -0.1072 3.3713 -0.6670
H -0.7220 -2.7579 0.3031
C -0.9607 -1.2791 -1.3163
H -1.8091 -1.3659 0.7116
H -1.9736 -0.8439 -1.5347
H -0.8446 -2.2002 -1.9515
N 0.1260 -0.3686 -1.6469
H -0.2081 0.4444 -2.1259
19
Frame 20
C -0.8690 -1.6557 0.1799
C 0.2962 -0.8815 0.7022
C 0.8211 -0.9684 1.9196
C 0.7901 0.0362 -0.4017
H 0.4245 -1.6386 2.6909
H 1.6790 -0.3498 2.2113
O 1.9203 0.5761 -0.4125
O -0.3465 1.4707 0.0658
C 0.2810 2.6669 0.1355
H 1.3984 2.5870 0.0005
H 0.0934 3.1645 1.1338
H -0.1049 3.3793 -0.6558
H -0.7235 -2.7560 0.3072
C -0.9595 -1.2825 -1.3176
H -1.8072 -1.3599 0.7110
H -1.9718 -0.8465 -1.5373
H -0.8445 -2.2059 -1.9496
N 0.1283 -0.3743 -1.6514
H -0.2050 0.4384 -2.1318
19
Frame 21
C -0.8681 -1.6540 0.1800
C 0.2991 -0.8803 0.6990
C 0.8240 -0.9632 1.9167
C 0.7938 0.0319 -0.4084
H 0.4259 -1.6292 2.6909
H 1.6831 -0.3450 2.2058
O 1.9199 0.5774 -0.4197
O -0.3531 1.4716 0.0565
C 0.2756 2.6656 0.1427
H 1.3941 2.5853 0.0147
H 0.0827 3.1550 1.1446
H -0.1025 3.3874 -0.6446
H -0.7249 -2.7542 0.3112
C -0.9583 -1.2859 -1.3188
H -1.8053 -1.3539 0.7104
H -1.9699 -0.8491 -1.5399
H -0.8444 -2.2115 -1.9478
N 0.1306 -0.3800 -1.6559
H -0.2018 0.4323 -2.1377
19
Frame 22
C -0.8669 -1.6515 0.1801
C 0.3034 -0.8808 0.6964
C 0.8287 -0.9617 1.9142
C 0.8001 0.0262 -0.4134
H 0.4283 -1.6237 2.6906
H 1.6897 -0.3454 2.2014
O 1.9205 0.5784 -0.4240
O -0.3611 1.4725 0.0506
C 0.2661 2.6649 0.1478
H 1.3855 2.5857 0.0235
H 0.0704 3.1486 1.1521
H -0.1079 3.3931 -0.6355
H -0.7283 -2.7517 0.3150
C -0.9558 -1.2878 -1.3198
H -1.8026 -1.3453 0.7096
H -1.9662 -0.8495 -1.5427
H -0.8430 -2.2154 -1.9460
N 0.1350 -0.3847 -1.6590
H -0.1959 0.4281 -2.1410
19
Frame 23
C -0.8656 -1.6490 0.1803
C 0.3078 -0.8812 0.6939
C 0.8333 -0.9603 1.9117
C 0.8064 0.0204 -0.4183
H 0.4308 -1.6183 2.6903
H 1.6964 -0.3458 2.1970
O 1.9211 0.5795 -0.4284
O -0.3691 1.4733 0.0448
C 0.2567 2.6641 0.1529
H 1.3769 2.5862 0.0323
H 0.0582 3.1421 1.1597
H -0.1134 3.3989 -0.6265
H -0.7318 -2.7492 0.3189
C -0.9532 -1.2896 -1.3209
H -1.7998 -1.3366 0.7087
H -1.9625 -0.8498 -1.5455
H -0.8416 -2.2192 -1.9443
N 0.1394 -0.3894 -1.6622
H -0.1899 0.4240 -2.1444
19
Frame 24
C -0.8644 -1.6465 0.1804
C 0.3122 -0.8817 0.6914
C 0.8380 -0.9588 1.9093
C 0.8128 0.0146 -0.4233
H 0.4332 -1.6128 2.6900
H 1.7030 -0.3462 2.1925
O 1.9217 0.5805 -0.4327
O -0.3771 1.4742 0.0389
C 0.2473 2.6634 0.1580
H 1.3683 2.5866 0.0411
H 0.0460 3.1357 1.1672
H -0.1188 3.4047 -0.6174
H -0.7352 -2.7468 0.3227
C -0.9506 -1.2915 -1.3219
H -1.7970 -1.3280 0.7078
H -1.9587 -0.8501 -1.5483
H -0.8403 -2.2231 -1.9425
N 0.1438 -0.3941 -1.6653
H -0.1840 0.4199 -2.1478
19
Frame 25
C -0.8631 -1.6440 0.1805
C 0.3165 -0.8822 0.6889
C 0.8426 -0.9573 1.9068
C 0.8191 0.0089 -0.4283
H 0.4357 -1.6073 2.6897
H 1.7096 -0.3466 2.1881
O 1.9224 0.5816 -0.4371
O -0.3851 1.4750 0.0331
C 0.2378 2.6626 0.1631
H 1.3597 2.5870 0.0500
H 0.0337 3.1293 1.1747
H -0.1242 3.4105 -0.6084
H -0.7386 -2.7443 0.3265
C -0.9481 -1.2934 -1.3229
H -1.7943 -1.3193 0.7069
H -1.9550 -0.8504 -1.5511
H -0.8389 -2.2269 -1.9408
N 0.1482 -0.3988 -1.6685
H -0.1781 0.4157 -2.1511
19
Frame 26
C -0.8619 -1.6415 0.1806
C 0.3209 -0.8827 0.6863
C 0.8473 -0.9558 1.9043
C 0.8254 0.0031 -0.4333
H 0.4381 -1.6018 2.6894
H 1.7162 -0.3470 2.1837
O 1.9230 0.5826 -0.4414
O -0.3931 1.4759 0.0272
C 0.2284 2.6619 0.1682
H 1.3511 2.5874 0.0588
H 0.0215 3.1229 1.1822
H -0.1296 3.4162 -0.5993
H -0.7420 -2.7418 0.3303
C -0.9455 -1.2953 -1.3239
H -1.7915 -1.3107 0.7061
H -1.9513 -0.8508 -1.5540
H -0.8375 -2.2308 -1.9390
N 0.1527 -0.4035 -1.6716
H -0.1722 0.4116 -2.1545
19
Frame 27
C -0.8606 -1.6390 0.1808
C 0.3252 -0.8832 0.6838
C 0.8519 -0.9543 1.9019
C 0.8318 -0.0026 -0.4383
H 0.4406 -1.5963 2.6891
H 1.7229 -0.3474 2.1792
O 1.9236 0.5837 -0.4458
O -0.4011 1.4767 0.0214
C 0.2189 2.6611 0.1733
H 1.3425 2.5879 0.0676
H 0.0092 3.1165 1.1898
H -0.1350 3.4220 -0.5903
H -0.7454 -2.7394 0.3341
C -0.9430 -1.2972 -1.3250
H -1.7888 -1.3020 0.7052
H -1.9475 -0.8511 -1.5568
H -0.8362 -2.2346 -1.9373
N 0.1571 -0.4082 -1.6748
H -0.1662 0.4074 -2.1578
19
Frame 28
C -0.8594 -1.6365 0.1809
C 0.3296 -0.8837 0.6813
C 0.8566 -0.9528 1.8994
C 0.8381 -0.0084 -0.4433
H 0.4430 -1.5908 2.6888
H 1.7295 -0.3478 2.1748
O 1.9242 0.5847 -0.4501
O -0.4091 1.4776 0.0155
C 0.2095 2.6604 0.1784
H 1.3339 2.5883 0.0764
H -0.0030 3.1101 1.1973
H -0.1404 3.4278 -0.5812
H -0.7488 -2.7369 0.3379
C -0.9404 -1.2991 -1.3260
H -1.7860 -1.2934 0.7043
H -1.9438 -0.8514 -1.5596
H -0.8348 -2.2385 -1.9355
N 0.1615 -0.4129 -1.6779
H -0.1603 0.4033 -2.1612
19
Frame 29
C -0.8563 -1.6321 0.1809
C 0.3387 -0.8861 0.6774
C 0.8658 -0.9527 1.8955
C 0.8517 -0.0199 -0.4510
H 0.4477 -1.5836 2.6883
H 1.7424 -0.3518 2.1683
O 1.9263 0.5852 -0.4559
O -0.4251 1.4794 0.0077
C 0.1894 2.6600 0.1857
H 1.3152 2.5913 0.0870
H -0.0251 3.1013 1.2086
H -0.1566 3.4374 -0.5667
H -0.7551 -2.7325 0.3438
C -0.9346 -1.3016 -1.3277
H -1.7796 -1.2775 0.7024
H -1.9357 -0.8509 -1.5645
H -0.8310 -2.2440 -1.9329
N 0.1706 -0.4202 -1.6824
H -0.1486 0.3981 -2.1644
19
Frame 30
C -0.8532 -1.6276 0.1810
C 0.3481 -0.8899 0.6744
C 0.8759 -0.9559 1.8923
C 0.8657 -0.0310 -0.4565
H 0.4533 -1.5807 2.6877
H 1.7566 -0.3600 2.1628
O 1.9294 0.5849 -0.4591
O -0.4412 1.4807 0.0030
C 0.1683 2.6603 0.1905
H 1.2954 2.5958 0.0950
H -0.0486 3.0971 1.2155
H -0.1750 3.4436 -0.5577
H -0.7623 -2.7281 0.3488
C -0.9285 -1.3024 -1.3289
H -1.7728 -1.2612 0.7008
H -1.9274 -0.8485 -1.5686
H -0.8270 -2.2471 -1.9307
N 0.1800 -0.4255 -1.6853
H -0.1367 0.3955 -2.1648
19
Frame 31
C -0.8501 -1.6234 0.1811
C 0.3575 -0.8942 0.6718
C 0.8862 -0.9605 1.8894
C 0.8795 -0.0418 -0.4609
H 0.4598 -1.5798 2.6869
H 1.7709 -0.3696 2.1578
O 1.9327 0.5838 -0.4609
O -0.4574 1.4822 -0.0003
C 0.1470 2.6611 0.1941
H 1.2754 2.6003 0.1021
H -0.0723 3.0955 1.2202
H -0.1939 3.4490 -0.5514
H -0.7694 -2.7240 0.3532
C -0.9224 -1.3026 -1.3299
H -1.7661 -1.2455 0.6994
H -1.9191 -0.8456 -1.5724
H -0.8224 -2.2493 -1.9288
N 0.1891 -0.4297 -1.6875
H -0.1252 0.3942 -2.1639
19
Frame 32
C -0.8466 -1.6193 0.1815
C 0.3671 -0.8988 0.6695
C 0.8968 -0.9660 1.8867
C 0.8935 -0.0523 -0.4651
H 0.4666 -1.5802 2.6860
H 1.7856 -0.3804 2.1532
O 1.9367 0.5820 -0.4625
O -0.4739 1.4838 -0.0044
C 0.1254 2.6623 0.1970
H 1.2552 2.6053 0.1106
H -0.0982 3.0951 1.2237
H -0.2115 3.4541 -0.5472
H -0.7762 -2.7199 0.3572
C -0.9165 -1.3024 -1.3306
H -1.7587 -1.2302 0.6985
H -1.9110 -0.8421 -1.5752
H -0.8186 -2.2509 -1.9270
N 0.1981 -0.4336 -1.6893
H -0.1139 0.3935 -2.1623
19
Frame 33
C -0.8428 -1.6161 0.1817
C 0.3768 -0.9044 0.6677
C 0.9076 -0.9727 1.8843
C 0.9073 -0.0624 -0.4681
H 0.4741 -1.5825 2.6852
H 1.8003 -0.3923 2.1491
O 1.9410 0.5792 -0.4628
O -0.4904 1.4858 -0.0076
C 0.1038 2.6643 0.1986
H 1.2349 2.6105 0.1198
H -0.1260 3.0981 1.2242
H -0.2282 3.4579 -0.5469
H -0.7817 -2.7168 0.3597
C -0.9108 -1.3012 -1.3309
H -1.7510 -1.2172 0.6982
H -1.9032 -0.8371 -1.5765
H -0.8156 -2.2507 -1.9260
N 0.2068 -0.4363 -1.6903
H -0.1030 0.3940 -2.1594
19
Frame 34
C -0.8387 -1.6136 0.1820
C 0.3864 -0.9108 0.6666
C 0.9184 -0.9818 1.8826
C 0.9210 -0.0721 -0.4695
H 0.4819 -1.5884 2.6844
H 1.8147 -0.4066 2.1465
O 1.9460 0.5755 -0.4611
O -0.5068 1.4883 -0.0096
C 0.0819 2.6676 0.1981
H 1.2143 2.6176 0.1254
H -0.1528 3.1041 1.2221
H -0.2466 3.4614 -0.5496
H -0.7865 -2.7146 0.3612
C -0.9051 -1.2992 -1.3307
H -1.7430 -1.2059 0.6985
H -1.8954 -0.8312 -1.5768
H -0.8124 -2.2491 -1.9256
N 0.2153 -0.4376 -1.6900
H -0.0926 0.3965 -2.1543
19
Frame 35
C -0.8348 -1.6107 0.1825
C 0.3959 -0.9170 0.6656
C 0.9292 -0.9904 1.8808
C 0.9346 -0.0817 -0.4712
H 0.4897 -1.5933 2.6837
H 1.8293 -0.4205 2.1434
O 1.9516 0.5707 -0.4599
O -0.5235 1.4914 -0.0147
C 0.0600 2.6708 0.1978
H 1.1935 2.6250 0.1303
H -0.1790 3.1067 1.2216
H -0.2658 3.4669 -0.5496
H -0.7922 -2.7117 0.3635
C -0.8991 -1.2976 -1.3306
H -1.7352 -1.1933 0.6985
H -1.8875 -0.8262 -1.5778
H -0.8084 -2.2483 -1.9246
N 0.2239 -0.4393 -1.6899
H -0.0823 0.3984 -2.1494
19
Frame 36
C -0.8304 -1.6088 0.1831
C 0.4057 -0.9247 0.6653
C 0.9399 -1.0013 1.8798
C 0.9485 -0.0913 -0.4713
H 0.4976 -1.6017 2.6830
H 1.8436 -0.4369 2.1419
O 1.9584 0.5644 -0.4568
O -0.5395 1.4949 -0.0186
C 0.0377 2.6756 0.1953
H 1.1723 2.6351 0.1318
H -0.2051 3.1129 1.2182
H -0.2872 3.4719 -0.5532
H -0.7969 -2.7100 0.3642
C -0.8933 -1.2949 -1.3299
H -1.7268 -1.1831 0.6994
H -1.8796 -0.8193 -1.5770
H -0.8054 -2.2454 -1.9244
N 0.2324 -0.4396 -1.6885
H -0.0718 0.4022 -2.1423
19
Frame 37
C -0.8261 -1.6064 0.1840
C 0.4156 -0.9324 0.6654
C 0.9515 -1.0137 1.8788
C 0.9623 -0.1003 -0.4708
H 0.5067 -1.6119 2.6823
H 1.8593 -0.4553 2.1401
O 1.9655 0.5579 -0.4531
O -0.5564 1.4987 -0.0245
C 0.0147 2.6807 0.1918
H 1.1503 2.6451 0.1347
H -0.2339 3.1191 1.2135
H -0.3076 3.4772 -0.5582
H -0.8021 -2.7078 0.3653
C -0.8875 -1.2915 -1.3288
H -1.7182 -1.1720 0.7008
H -1.8716 -0.8114 -1.5756
H -0.8027 -2.2420 -1.9239
N 0.2413 -0.4398 -1.6867
H -0.0609 0.4059 -2.1352
