15
Frame 1
H -0.0447 -0.0537 1.3651
N 0.1665 -0.0278 0.3706
C 1.4209 -0.8340 0.0972
H 1.2694 -1.8473 0.4363
H 2.2427 -0.3818 0.6292
H 1.6107 -0.8136 -0.9647
C 0.3373 1.4392 -0.0117
H 0.5800 1.4809 -1.0623
H 1.1401 1.8524 0.5781
H -0.5955 1.9348 0.1902
C -1.0464 -0.6192 -0.3162
H -0.9043 -0.4926 -1.3782
H -1.0912 -1.6656 -0.0552
O -2.1038 0.1401 0.2202
H -2.9818 -0.1119 -0.0987
15
Frame 2
H -0.0925 -0.0459 1.4083
N 0.1682 -0.0264 0.3477
C 1.4230 -0.8368 0.1066
H 1.2608 -1.8491 0.4432
H 2.2345 -0.3869 0.6560
H 1.6375 -0.8192 -0.9511
C 0.3438 1.4380 -0.0322
H 0.6005 1.4794 -1.0797
H 1.1380 1.8541 0.5670
H -0.5913 1.9348 0.1576
C -1.0460 -0.6143 -0.3326
H -0.9395 -0.4419 -1.3925
H -1.0666 -1.6709 -0.1139
O -2.0934 0.1030 0.2712
H -2.9769 -0.1182 -0.0554
15
Frame 3
H -0.1437 -0.0378 1.4500
N 0.1703 -0.0245 0.3254
C 1.4244 -0.8399 0.1142
H 1.2554 -1.8468 0.4628
H 2.2297 -0.3842 0.6678
H 1.6541 -0.8384 -0.9409
C 0.3523 1.4378 -0.0502
H 0.6295 1.4809 -1.0927
H 1.1336 1.8556 0.5644
H -0.5863 1.9349 0.1228
C -1.0462 -0.6082 -0.3495
H -0.9752 -0.3900 -1.4041
H -1.0436 -1.6731 -0.1752
O -2.0827 0.0642 0.3164
H -2.9718 -0.1306 -0.0111
15
Frame 4
H -0.1989 -0.0279 1.4890
N 0.1733 -0.0217 0.3031
C 1.4255 -0.8425 0.1218
H 1.2465 -1.8461 0.4744
H 2.2227 -0.3860 0.6862
H 1.6751 -0.8500 -0.9291
C 0.3622 1.4381 -0.0682
H 0.6528 1.4829 -1.1073
H 1.1359 1.8557 0.5561
H -0.5772 1.9382 0.0940
C -1.0464 -0.6013 -0.3650
H -1.0095 -0.3429 -1.4124
H -1.0232 -1.6719 -0.2319
O -2.0717 0.0276 0.3541
H -2.9670 -0.1523 0.0351
15
Frame 5
H -0.2571 -0.0172 1.5265
N 0.1770 -0.0181 0.2816
C 1.4265 -0.8444 0.1285
H 1.2353 -1.8471 0.4772
H 2.2137 -0.3919 0.7098
H 1.6998 -0.8541 -0.9169
C 0.3730 1.4389 -0.0864
H 0.6742 1.4846 -1.1229
H 1.1413 1.8557 0.5450
H -0.5659 1.9434 0.0666
C -1.0468 -0.5945 -0.3778
H -1.0436 -0.3002 -1.4165
H -1.0046 -1.6685 -0.2831
O -2.0606 -0.0086 0.3880
H -2.9619 -0.1780 0.0802
15
Frame 6
H -0.3190 -0.0061 1.5621
N 0.1809 -0.0138 0.2612
C 1.4266 -0.8461 0.1344
H 1.2247 -1.8465 0.4832
H 2.2058 -0.3954 0.7277
H 1.7199 -0.8618 -0.9060
C 0.3854 1.4401 -0.1034
H 0.6975 1.4871 -1.1370
H 1.1484 1.8552 0.5354
H -0.5523 1.9503 0.0402
C -1.0470 -0.5870 -0.3892
H -1.0772 -0.2579 -1.4171
H -0.9868 -1.6628 -0.3336
O -2.0501 -0.0460 0.4186
H -2.9568 -0.2094 0.1235
15
Frame 7
H -0.3844 0.0058 1.5958
N 0.1848 -0.0084 0.2417
C 1.4255 -0.8475 0.1395
H 1.2132 -1.8448 0.4906
H 2.1980 -0.3978 0.7425
H 1.7371 -0.8715 -0.8958
C 0.3996 1.4419 -0.1199
H 0.7235 1.4900 -1.1502
H 1.1575 1.8543 0.5268
H -0.5360 1.9596 0.0132
C -1.0469 -0.5786 -0.3995
H -1.1110 -0.2152 -1.4143
H -0.9695 -1.6545 -0.3840
O -2.0398 -0.0849 0.4466
H -2.9517 -0.2484 0.1670
15
Frame 8
H -0.4541 0.0186 1.6275
N 0.1885 -0.0016 0.2233
C 1.4231 -0.8483 0.1444
H 1.2000 -1.8424 0.4980
H 2.1896 -0.4003 0.7564
H 1.7524 -0.8814 -0.8857
C 0.4158 1.4443 -0.1365
H 0.7503 1.4926 -1.1638
H 1.1702 1.8527 0.5168
H -0.5160 1.9718 -0.0128
C -1.0466 -0.5688 -0.4086
H -1.1445 -0.1717 -1.4081
H -0.9528 -1.6431 -0.4344
O -2.0299 -0.1249 0.4718
H -2.9462 -0.2974 0.2116
15
Frame 9
H -0.5278 0.0319 1.6571
N 0.1919 0.0067 0.2063
C 1.4192 -0.8485 0.1489
H 1.1842 -1.8399 0.5028
H 2.1796 -0.4044 0.7715
H 1.7672 -0.8893 -0.8751
C 0.4341 1.4472 -0.1539
H 0.7801 1.4941 -1.1779
H 1.1853 1.8512 0.5060
H -0.4927 1.9867 -0.0413
C -1.0460 -0.5573 -0.4163
H -1.1784 -0.1272 -1.3980
H -0.9372 -1.6284 -0.4843
O -2.0202 -0.1656 0.4951
H -2.9395 -0.3574 0.2589
15
Frame 10
H -0.6060 0.0453 1.6845
N 0.1945 0.0168 0.1907
C 1.4135 -0.8481 0.1533
H 1.1659 -1.8371 0.5054
H 2.1677 -0.4096 0.7878
H 1.7811 -0.8954 -0.8640
C 0.4544 1.4505 -0.1723
H 0.8131 1.4941 -1.1926
H 1.2026 1.8499 0.4941
H -0.4658 2.0042 -0.0726
C -1.0450 -0.5439 -0.4226
H -1.2126 -0.0811 -1.3839
H -0.9229 -1.6099 -0.5338
O -2.0102 -0.2067 0.5163
H -2.9303 -0.4290 0.3095
15
Frame 11
H -0.6894 0.0561 1.7092
N 0.1970 0.0275 0.1770
C 1.4072 -0.8471 0.1569
H 1.1480 -1.8333 0.5092
H 2.1566 -0.4137 0.8007
H 1.7920 -0.9028 -0.8540
C 0.4751 1.4537 -0.1903
H 0.8459 1.4937 -1.2068
H 1.2207 1.8483 0.4822
H -0.4378 2.0221 -0.1028
C -1.0428 -0.5293 -0.4276
H -1.2443 -0.0372 -1.3675
H -0.9111 -1.5891 -0.5794
O -1.9998 -0.2439 0.5333
H -2.9172 -0.5051 0.3600
15
Frame 12
H -0.7778 0.0623 1.7306
N 0.1997 0.0375 0.1653
C 1.4015 -0.8456 0.1587
H 1.1326 -1.8294 0.5112
H 2.1468 -0.4173 0.8111
H 1.8021 -0.9093 -0.8460
C 0.4945 1.4562 -0.2069
H 0.8757 1.4934 -1.2200
H 1.2381 1.8467 0.4706
H -0.4112 2.0382 -0.1297
C -1.0388 -0.5145 -0.4311
H -1.2707 0.0003 -1.3515
H -0.9031 -1.5687 -0.6156
O -1.9896 -0.2715 0.5444
H -2.8999 -0.5782 0.4091
15
Frame 13
H -0.8715 0.0630 1.7477
N 0.2032 0.0458 0.1556
C 1.3977 -0.8441 0.1572
H 1.1212 -1.8270 0.5076
H 2.1389 -0.4219 0.8185
H 1.8128 -0.9127 -0.8416
C 0.5115 1.4579 -0.2207
H 0.9019 1.4944 -1.2308
H 1.2528 1.8452 0.4614
H -0.3879 2.0512 -0.1520
C -1.0329 -0.5002 -0.4327
H -1.2887 0.0271 -1.3395
H -0.9004 -1.5514 -0.6360
O -1.9813 -0.2822 0.5479
H -2.8773 -0.6451 0.4573
15
Frame 14
H -0.9680 0.0520 1.7620
N 0.2078 0.0523 0.1487
C 1.3964 -0.8424 0.1531
H 1.1158 -1.8241 0.5048
H 2.1366 -0.4242 0.8186
H 1.8204 -0.9174 -0.8418
C 0.5253 1.4590 -0.2308
H 0.9204 1.4969 -1.2396
H 1.2662 1.8440 0.4534
H -0.3689 2.0614 -0.1659
C -1.0246 -0.4878 -0.4318
H -1.2996 0.0444 -1.3300
H -0.8985 -1.5380 -0.6441
O -1.9743 -0.2840 0.5475
H -2.8549 -0.6920 0.4958
15
Frame 15
H -1.0649 0.0509 1.7710
N 0.2146 0.0530 0.1416
C 1.4011 -0.8418 0.1441
H 1.1197 -1.8259 0.4898
H 2.1377 -0.4294 0.8175
H 1.8350 -0.9145 -0.8471
C 0.5335 1.4576 -0.2360
H 0.9303 1.5037 -1.2441
H 1.2733 1.8410 0.4508
H -0.3587 2.0634 -0.1692
C -1.0141 -0.4832 -0.4276
H -1.3054 0.0442 -1.3237
H -0.8971 -1.5352 -0.6364
O -1.9654 -0.2788 0.5469
H -2.8395 -0.7049 0.5225
15
Frame 16
H -1.1563 0.0263 1.7815
N 0.2231 0.0524 0.1364
C 1.4090 -0.8403 0.1360
H 1.1304 -1.8244 0.4852
H 2.1463 -0.4274 0.8087
H 1.8450 -0.9174 -0.8542
C 0.5381 1.4562 -0.2394
H 0.9281 1.5105 -1.2503
H 1.2818 1.8392 0.4437
H -0.3529 2.0637 -0.1639
C -1.0012 -0.4820 -0.4203
H -1.3088 0.0388 -1.3155
H -0.8913 -1.5359 -0.6245
O -1.9527 -0.2783 0.5509
H -2.8386 -0.6813 0.5257
15
Frame 17
H -1.2445 0.0020 1.7881
N 0.2330 0.0505 0.1288
C 1.4192 -0.8391 0.1279
H 1.1435 -1.8238 0.4791
H 2.1556 -0.4255 0.8012
H 1.8581 -0.9188 -0.8610
C 0.5412 1.4547 -0.2426
H 0.9226 1.5190 -1.2565
H 1.2888 1.8373 0.4366
H -0.3498 2.0616 -0.1559
C -0.9887 -0.4838 -0.4110
H -1.3138 0.0297 -1.3050
H -0.8848 -1.5393 -0.6103
O -1.9384 -0.2812 0.5592
H -2.8420 -0.6432 0.5216
15
Frame 18
H -1.3263 -0.0356 1.7930
N 0.2443 0.0474 0.1180
C 1.4319 -0.8376 0.1201
H 1.1588 -1.8230 0.4721
H 2.1654 -0.4224 0.7959
H 1.8755 -0.9188 -0.8667
C 0.5419 1.4534 -0.2463
H 0.9133 1.5295 -1.2634
H 1.2936 1.8360 0.4286
H -0.3503 2.0570 -0.1462
C -0.9769 -0.4897 -0.3992
H -1.3216 0.0149 -1.2917
H -0.8761 -1.5464 -0.5933
O -1.9221 -0.2893 0.5726
H -2.8513 -0.5755 0.5067
15
Frame 19
H -1.4093 -0.0785 1.7925
N 0.2567 0.0435 0.1071
C 1.4463 -0.8360 0.1113
H 1.1765 -1.8229 0.4622
H 2.1770 -0.4197 0.7894
H 1.8936 -0.9165 -0.8741
C 0.5414 1.4521 -0.2486
H 0.8993 1.5409 -1.2697
H 1.2988 1.8344 0.4201
H -0.3523 2.0511 -0.1316
C -0.9659 -0.4975 -0.3837
H -1.3275 -0.0065 -1.2781
H -0.8678 -1.5563 -0.5669
O -1.9094 -0.2934 0.5859
H -2.8576 -0.4947 0.4842
15
Frame 20
H -1.4944 -0.1403 1.7857
N 0.2707 0.0371 0.0982
C 1.4644 -0.8340 0.0998
H 1.2014 -1.8233 0.4493
H 2.1934 -0.4154 0.7785
H 1.9122 -0.9110 -0.8857
C 0.5369 1.4497 -0.2475
H 0.8742 1.5534 -1.2745
H 1.3032 1.8325 0.4108
H -0.3588 2.0409 -0.1068
C -0.9544 -0.5097 -0.3631
H -1.3276 -0.0441 -1.2673
H -0.8597 -1.5727 -0.5211
O -1.9012 -0.2851 0.5957
H -2.8603 -0.3780 0.4480
15
Frame 21
H -1.5801 -0.2237 1.7704
N 0.2841 0.0313 0.0885
C 1.4824 -0.8309 0.0894
H 1.2255 -1.8235 0.4345
H 2.2079 -0.4110 0.7713
H 1.9328 -0.9024 -0.8954
C 0.5310 1.4475 -0.2476
H 0.8442 1.5660 -1.2809
H 1.3082 1.8307 0.3976
H -0.3653 2.0310 -0.0797
C -0.9443 -0.5234 -0.3398
H -1.3290 -0.0874 -1.2548
H -0.8510 -1.5901 -0.4696
O -1.8960 -0.2768 0.6055
H -2.8503 -0.2374 0.4106
15
Frame 22
H -1.6769 -0.3486 1.7371
N 0.2952 0.0253 0.0861
C 1.5006 -0.8252 0.0827
H 1.2544 -1.8202 0.4292
H 2.2260 -0.3996 0.7613
H 1.9475 -0.8943 -0.9039
C 0.5201 1.4439 -0.2470
H 0.7937 1.5738 -1.2904
H 1.3174 1.8286 0.3723
H -0.3723 2.0214 -0.0402
C -0.9340 -0.5417 -0.3151
H -1.3248 -0.1385 -1.2431
H -0.8378 -1.6109 -0.4149
O -1.8978 -0.2796 0.6103
H -2.8114 -0.0344 0.3758
15
Frame 23
H -1.7845 -0.5727 1.6589
N 0.2947 0.0234 0.0867
C 1.5098 -0.8127 0.0939
H 1.2751 -1.8062 0.4521
H 2.2306 -0.3718 0.7669
H 1.9562 -0.8892 -0.8922
C 0.5023 1.4404 -0.2604
H 0.7393 1.5679 -1.3133
H 1.3186 1.8320 0.3292
H -0.3828 2.0197 -0.0245
C -0.9265 -0.5627 -0.3042
H -1.3249 -0.1824 -1.2381
H -0.8237 -1.6320 -0.3864
O -1.9148 -0.3214 0.6076
H -2.6694 0.2677 0.4238
15
Frame 24
H -1.7939 -0.7126 1.6077
N 0.2841 0.0344 0.0706
C 1.4952 -0.8041 0.1175
H 1.2495 -1.7949 0.4760
H 2.1999 -0.3603 0.8051
H 1.9660 -0.8886 -0.8558
C 0.5078 1.4441 -0.2951
H 0.7864 1.5503 -1.3377
H 1.2991 1.8480 0.3177
H -0.3834 2.0280 -0.1085
C -0.9378 -0.5507 -0.3125
H -1.3542 -0.1437 -1.2245
H -0.8352 -1.6156 -0.4310
O -1.9104 -0.3534 0.6226
H -2.5731 0.3190 0.5481
15
Frame 25
H -1.8032 -0.8526 1.5564
N 0.2735 0.0455 0.0544
C 1.4807 -0.7955 0.1410
H 1.2239 -1.7837 0.4999
H 2.1693 -0.3487 0.8432
H 1.9757 -0.8880 -0.8195
C 0.5133 1.4479 -0.3299
H 0.8335 1.5328 -1.3622
H 1.2797 1.8641 0.3062
H -0.3841 2.0364 -0.1925
C -0.9492 -0.5388 -0.3208
H -1.3836 -0.1051 -1.2108
H -0.8468 -1.5992 -0.4756
O -1.9059 -0.3853 0.6375
H -2.4767 0.3704 0.6725
15
Frame 26
H -1.8126 -0.9925 1.5052
N 0.2629 0.0565 0.0383
C 1.4661 -0.7869 0.1646
H 1.1983 -1.7724 0.5238
H 2.1386 -0.3372 0.8814
H 1.9855 -0.8874 -0.7831
C 0.5188 1.4516 -0.3646
H 0.8806 1.5152 -1.3866
H 1.2602 1.8801 0.2947
H -0.3847 2.0447 -0.2765
C -0.9605 -0.5268 -0.3291
H -1.4129 -0.0664 -1.1972
H -0.8583 -1.5828 -0.5202
O -1.9015 -0.4173 0.6525
H -2.3804 0.4217 0.7968
15
Frame 27
H -1.7931 -1.0895 1.4717
N 0.2553 0.0660 -0.0206
C 1.4432 -0.7795 0.1786
H 1.1539 -1.7780 0.4746
H 2.0567 -0.3593 0.9590
H 2.0329 -0.8454 -0.7256
C 0.5343 1.4564 -0.4191
H 1.0336 1.4988 -1.3690
H 1.1596 1.9269 0.3142
H -0.3747 2.0214 -0.4877
C -0.9825 -0.5060 -0.3264
H -1.4805 -0.0060 -1.1408
H -0.9000 -1.5519 -0.5707
O -1.8617 -0.4480 0.7093
H -2.2770 0.3943 0.9525
15
Frame 28
H -1.7735 -1.1864 1.4381
N 0.2477 0.0755 -0.0795
C 1.4204 -0.7721 0.1926
H 1.1095 -1.7837 0.4253
H 1.9747 -0.3815 1.0367
H 2.0803 -0.8035 -0.6681
C 0.5497 1.4613 -0.4736
H 1.1866 1.4824 -1.3513
H 1.0590 1.9737 0.3336
H -0.3646 1.9981 -0.6990
C -1.0044 -0.4853 -0.3236
H -1.5481 0.0543 -1.0844
H -0.9417 -1.5211 -0.6212
O -1.8219 -0.4788 0.7661
H -2.1736 0.3669 1.1083
