15
Frame 1
H -1.5166 -1.0308 1.6064
N 0.2694 0.0057 -0.3387
C 1.3898 -0.8219 0.1277
H 1.1610 -1.8707 -0.0211
H 1.6229 -0.6537 1.1754
H 2.2697 -0.5879 -0.4549
C 0.5209 1.4408 -0.5263
H 1.4426 1.5702 -1.0760
H 0.6108 1.9735 0.4162
H -0.2790 1.8828 -1.1089
C -1.0305 -0.4853 -0.3100
H -1.6604 0.0437 -1.0086
H -1.0531 -1.5366 -0.5524
O -1.6634 -0.3815 0.8916
H -2.0841 0.4516 1.1796
15
Frame 2
H -1.5304 -1.0297 1.6240
N 0.2704 0.0056 -0.3401
C 1.3939 -0.8214 0.1228
H 1.1612 -1.8707 -0.0144
H 1.6332 -0.6431 1.1670
H 2.2691 -0.5934 -0.4690
C 0.5250 1.4405 -0.5310
H 1.4394 1.5664 -1.0935
H 0.6301 1.9688 0.4120
H -0.2820 1.8863 -1.1002
C -1.0200 -0.4859 -0.3254
H -1.6613 0.0473 -1.0086
H -1.0516 -1.5400 -0.5496
O -1.6787 -0.3819 0.9096
H -2.0983 0.4511 1.1963
15
Frame 3
H -1.5463 -1.0301 1.6413
N 0.2716 0.0056 -0.3415
C 1.3982 -0.8206 0.1180
H 1.1604 -1.8703 -0.0045
H 1.6462 -0.6297 1.1573
H 2.2677 -0.6010 -0.4853
C 0.5298 1.4404 -0.5357
H 1.4366 1.5624 -1.1111
H 0.6504 1.9640 0.4075
H -0.2840 1.8902 -1.0913
C -1.0091 -0.4860 -0.3407
H -1.6619 0.0518 -1.0077
H -1.0497 -1.5423 -0.5473
O -1.6943 -0.3829 0.9274
H -2.1157 0.4485 1.2134
15
Frame 4
H -1.5652 -1.0311 1.6579
N 0.2730 0.0054 -0.3441
C 1.4027 -0.8197 0.1128
H 1.1598 -1.8697 0.0068
H 1.6591 -0.6146 1.1468
H 2.2661 -0.6094 -0.5022
C 0.5345 1.4403 -0.5403
H 1.4334 1.5592 -1.1285
H 0.6705 1.9578 0.4035
H -0.2861 1.8947 -1.0815
C -0.9978 -0.4864 -0.3564
H -1.6620 0.0554 -1.0070
H -1.0472 -1.5449 -0.5440
O -1.7098 -0.3835 0.9448
H -2.1310 0.4466 1.2315
15
Frame 5
H -1.5827 -1.0311 1.6757
N 0.2747 0.0049 -0.3479
C 1.4072 -0.8188 0.1076
H 1.1596 -1.8690 0.0182
H 1.6711 -0.5992 1.1363
H 2.2650 -0.6180 -0.5181
C 0.5396 1.4400 -0.5455
H 1.4298 1.5559 -1.1472
H 0.6922 1.9506 0.3991
H -0.2880 1.8996 -1.0709
C -0.9865 -0.4864 -0.3722
H -1.6620 0.0602 -1.0053
H -1.0451 -1.5465 -0.5414
O -1.7246 -0.3845 0.9622
H -2.1504 0.4424 1.2491
15
Frame 6
H -1.6046 -1.0324 1.6928
N 0.2767 0.0045 -0.3524
C 1.4121 -0.8179 0.1020
H 1.1596 -1.8680 0.0304
H 1.6840 -0.5829 1.1247
H 2.2639 -0.6275 -0.5351
C 0.5448 1.4399 -0.5506
H 1.4263 1.5534 -1.1653
H 0.7135 1.9430 0.3947
H -0.2895 1.9046 -1.0601
C -0.9748 -0.4866 -0.3878
H -1.6615 0.0640 -1.0034
H -1.0422 -1.5481 -0.5372
O -1.7392 -0.3848 0.9797
H -2.1692 0.4387 1.2677
15
Frame 7
H -1.6263 -1.0332 1.7108
N 0.2791 0.0037 -0.3580
C 1.4171 -0.8172 0.0961
H 1.1604 -1.8669 0.0408
H 1.6952 -0.5678 1.1132
H 2.2635 -0.6361 -0.5506
C 0.5501 1.4398 -0.5564
H 1.4233 1.5512 -1.1830
H 0.7339 1.9352 0.3897
H -0.2901 1.9093 -1.0507
C -0.9631 -0.4865 -0.4033
H -1.6610 0.0686 -1.0004
H -1.0397 -1.5490 -0.5329
O -1.7525 -0.3847 0.9980
H -2.1901 0.4337 1.2867
15
Frame 8
H -1.6498 -1.0344 1.7292
N 0.2819 0.0030 -0.3643
C 1.4223 -0.8167 0.0897
H 1.1618 -1.8658 0.0500
H 1.7061 -0.5535 1.1014
H 2.2636 -0.6444 -0.5658
C 0.5555 1.4398 -0.5624
H 1.4210 1.5494 -1.1999
H 0.7530 1.9275 0.3843
H -0.2900 1.9138 -1.0425
C -0.9515 -0.4865 -0.4185
H -1.6602 0.0729 -0.9968
H -1.0370 -1.5496 -0.5278
O -1.7649 -0.3840 1.0170
H -2.2116 0.4286 1.3064
15
Frame 9
H -1.6735 -1.0352 1.7480
N 0.2849 0.0022 -0.3711
C 1.4274 -0.8163 0.0832
H 1.1635 -1.8647 0.0586
H 1.7161 -0.5397 1.0895
H 2.2640 -0.6526 -0.5804
C 0.5609 1.4397 -0.5688
H 1.4188 1.5479 -1.2164
H 0.7714 1.9195 0.3787
H -0.2896 1.9182 -1.0349
C -0.9402 -0.4865 -0.4336
H -1.6591 0.0773 -0.9931
H -1.0340 -1.5499 -0.5226
O -1.7772 -0.3831 1.0363
H -2.2334 0.4232 1.3266
15
Frame 10
H -1.6986 -1.0365 1.7670
N 0.2883 0.0014 -0.3782
C 1.4329 -0.8160 0.0765
H 1.1655 -1.8635 0.0659
H 1.7260 -0.5270 1.0775
H 2.2650 -0.6605 -0.5946
C 0.5664 1.4398 -0.5755
H 1.4172 1.5468 -1.2325
H 0.7890 1.9123 0.3725
H -0.2886 1.9221 -1.0284
C -0.9291 -0.4865 -0.4484
H -1.6579 0.0815 -0.9886
H -1.0312 -1.5498 -0.5169
O -1.7882 -0.3814 1.0568
H -2.2567 0.4174 1.3469
15
Frame 11
H -1.7239 -1.0377 1.7866
N 0.2918 0.0007 -0.3854
C 1.4384 -0.8159 0.0695
H 1.1680 -1.8624 0.0708
H 1.7354 -0.5162 1.0659
H 2.2665 -0.6672 -0.6080
C 0.5719 1.4398 -0.5825
H 1.4165 1.5456 -1.2475
H 0.8050 1.9059 0.3659
H -0.2869 1.9254 -1.0240
C -0.9184 -0.4865 -0.4625
H -1.6567 0.0856 -0.9837
H -1.0286 -1.5493 -0.5110
O -1.7990 -0.3793 1.0782
H -2.2803 0.4115 1.3678
15
Frame 12
H -1.7486 -1.0385 1.8080
N 0.2954 -0.0002 -0.3931
C 1.4439 -0.8161 0.0618
H 1.1729 -1.8621 0.0666
H 1.7416 -0.5119 1.0564
H 2.2697 -0.6685 -0.6186
C 0.5774 1.4397 -0.5903
H 1.4201 1.5433 -1.2580
H 0.8142 1.9026 0.3584
H -0.2823 1.9262 -1.0284
C -0.9086 -0.4862 -0.4749
H -1.6560 0.0900 -0.9768
H -1.0269 -1.5481 -0.5035
O -1.8090 -0.3763 1.1022
H -2.3038 0.4062 1.3903
15
Frame 13
H -1.7727 -1.0389 1.8286
N 0.2991 -0.0009 -0.4006
C 1.4493 -0.8163 0.0545
H 1.1762 -1.8614 0.0675
H 1.7493 -0.5045 1.0457
H 2.2720 -0.6731 -0.6305
C 0.5827 1.4398 -0.5976
H 1.4211 1.5422 -1.2706
H 0.8265 1.8977 0.3515
H -0.2795 1.9283 -1.0279
C -0.8990 -0.4865 -0.4883
H -1.6547 0.0934 -0.9719
H -1.0243 -1.5473 -0.4974
O -1.8202 -0.3740 1.1248
H -2.3258 0.4015 1.4122
15
Frame 14
H -1.7958 -1.0393 1.8498
N 0.3029 -0.0016 -0.4079
C 1.4546 -0.8166 0.0473
H 1.1799 -1.8609 0.0670
H 1.7567 -0.4983 1.0356
H 2.2746 -0.6769 -0.6416
C 0.5879 1.4399 -0.6051
H 1.4227 1.5408 -1.2828
H 0.8379 1.8937 0.3440
H -0.2763 1.9300 -1.0288
C -0.8901 -0.4867 -0.5011
H -1.6531 0.0972 -0.9668
H -1.0220 -1.5462 -0.4921
O -1.8321 -0.3719 1.1480
H -2.3478 0.3969 1.4346
15
Frame 15
H -1.8284 -1.0449 1.8660
N 0.3082 -0.0003 -0.4110
C 1.4620 -0.8157 0.0409
H 1.1797 -1.8570 0.0869
H 1.7785 -0.4790 1.0183
H 2.2722 -0.6940 -0.6626
C 0.5951 1.4412 -0.6111
H 1.4145 1.5405 -1.3077
H 0.8690 1.8873 0.3348
H -0.2774 1.9369 -1.0100
C -0.8796 -0.4861 -0.5127
H -1.6487 0.1000 -0.9639
H -1.0167 -1.5442 -0.4879
O -1.8505 -0.3731 1.1680
H -2.3778 0.3885 1.4521
15
Frame 16
H -1.8486 -1.0442 1.8885
N 0.3120 -0.0013 -0.4191
C 1.4669 -0.8163 0.0337
H 1.1838 -1.8570 0.0839
H 1.7834 -0.4750 1.0093
H 2.2758 -0.6964 -0.6716
C 0.5999 1.4410 -0.6188
H 1.4168 1.5397 -1.3181
H 0.8775 1.8835 0.3275
H -0.2739 1.9379 -1.0130
C -0.8718 -0.4867 -0.5251
H -1.6471 0.1031 -0.9601
H -1.0148 -1.5430 -0.4843
O -1.8623 -0.3708 1.1920
H -2.3976 0.3854 1.4754
15
Frame 17
H -1.8767 -1.0472 1.9089
N 0.3170 -0.0006 -0.4236
C 1.4738 -0.8160 0.0264
H 1.1871 -1.8549 0.0885
H 1.7982 -0.4662 0.9962
H 2.2767 -0.7042 -0.6870
C 0.6066 1.4418 -0.6262
H 1.4156 1.5380 -1.3350
H 0.8965 1.8810 0.3178
H -0.2709 1.9409 -1.0087
C -0.8631 -0.4860 -0.5345
H -1.6437 0.1065 -0.9551
H -1.0109 -1.5407 -0.4789
O -1.8816 -0.3717 1.2147
H -2.4246 0.3794 1.4965
15
Frame 18
H -1.8966 -1.0464 1.9322
N 0.3211 -0.0015 -0.4317
C 1.4787 -0.8167 0.0189
H 1.1914 -1.8551 0.0840
H 1.8026 -0.4634 0.9874
H 2.2807 -0.7060 -0.6956
C 0.6112 1.4417 -0.6339
H 1.4190 1.5375 -1.3441
H 0.9033 1.8780 0.3106
H -0.2669 1.9416 -1.0134
C -0.8560 -0.4866 -0.5460
H -1.6418 0.1086 -0.9526
H -1.0087 -1.5396 -0.4762
O -1.8946 -0.3695 1.2396
H -2.4434 0.3774 1.5207
15
Frame 19
H -1.9177 -1.0465 1.9552
N 0.3254 -0.0019 -0.4391
C 1.4839 -0.8172 0.0114
H 1.1954 -1.8548 0.0811
H 1.8092 -0.4599 0.9779
H 2.2841 -0.7090 -0.7054
C 0.6162 1.4417 -0.6415
H 1.4215 1.5369 -1.3546
H 0.9121 1.8754 0.3029
H -0.2632 1.9425 -1.0165
C -0.8491 -0.4870 -0.5565
H -1.6393 0.1107 -0.9502
H -1.0059 -1.5383 -0.4736
O -1.9091 -0.3678 1.2646
H -2.4637 0.3751 1.5443
15
Frame 20
H -1.9529 -1.0530 1.9756
N 0.3321 0.0000 -0.4413
C 1.4930 -0.8164 0.0033
H 1.2001 -1.8516 0.0878
H 1.8310 -0.4499 0.9618
H 2.2843 -0.7188 -0.7248
C 0.6250 1.4431 -0.6498
H 1.4190 1.5340 -1.3760
H 0.9379 1.8752 0.2897
H -0.2588 1.9466 -1.0102
C -0.8401 -0.4848 -0.5605
H -1.6343 0.1151 -0.9425
H -1.0007 -1.5343 -0.4657
O -1.9377 -0.3723 1.2872
H -2.4979 0.3669 1.5654
15
Frame 21
H -1.9729 -1.0525 2.0001
N 0.3364 -0.0007 -0.4493
C 1.4980 -0.8170 -0.0044
H 1.2050 -1.8520 0.0811
H 1.8353 -0.4488 0.9536
H 2.2889 -0.7193 -0.7330
C 0.6299 1.4430 -0.6577
H 1.4236 1.5334 -1.3842
H 0.9433 1.8733 0.2823
H -0.2542 1.9467 -1.0169
C -0.8340 -0.4852 -0.5703
H -1.6319 0.1168 -0.9411
H -0.9981 -1.5332 -0.4641
O -1.9521 -0.3702 1.3135
H -2.5171 0.3656 1.5904
15
Frame 22
H -1.9936 -1.0526 2.0243
N 0.3409 -0.0011 -0.4569
C 1.5032 -0.8175 -0.0121
H 1.2095 -1.8520 0.0760
H 1.8410 -0.4469 0.9447
H 2.2930 -0.7211 -0.7420
C 0.6349 1.4430 -0.6655
H 1.4272 1.5328 -1.3935
H 0.9505 1.8716 0.2745
H -0.2498 1.9471 -1.0222
C -0.8279 -0.4855 -0.5794
H -1.6290 0.1185 -0.9400
H -0.9950 -1.5319 -0.4629
O -1.9677 -0.3685 1.3399
H -2.5373 0.3641 1.6151
15
Frame 23
H -2.0351 -1.0616 2.0453
N 0.3494 0.0018 -0.4578
C 1.5143 -0.8164 -0.0215
H 1.2161 -1.8480 0.0820
H 1.8678 -0.4371 0.9260
H 2.2933 -0.7314 -0.7644
C 0.6458 1.4447 -0.6752
H 1.4250 1.5289 -1.4179
H 0.9804 1.8734 0.2581
H -0.2435 1.9516 -1.0162
C -0.8187 -0.4815 -0.5780
H -1.6229 0.1244 -0.9283
H -0.9890 -1.5263 -0.4513
O -2.0046 -0.3761 1.3627
H -2.5785 0.3537 1.6364
15
Frame 24
H -2.0555 -1.0615 2.0705
N 0.3539 0.0013 -0.4658
C 1.5195 -0.8169 -0.0294
H 1.2213 -1.8484 0.0748
H 1.8724 -0.4365 0.9178
H 2.2981 -0.7316 -0.7726
C 0.6508 1.4446 -0.6831
H 1.4301 1.5282 -1.4258
H 0.9857 1.8721 0.2505
H -0.2384 1.9517 -1.0236
C -0.8132 -0.4818 -0.5864
H -1.6199 0.1258 -0.9280
H -0.9858 -1.5252 -0.4508
O -2.0201 -0.3741 1.3901
H -2.5989 0.3524 1.6617
15
Frame 25
H -2.0763 -1.0616 2.0956
N 0.3586 0.0009 -0.4733
C 1.5247 -0.8174 -0.0372
H 1.2262 -1.8487 0.0682
H 1.8777 -0.4358 0.9095
H 2.3027 -0.7324 -0.7810
C 0.6559 1.4445 -0.6910
H 1.4346 1.5277 -1.4343
H 0.9916 1.8709 0.2427
H -0.2336 1.9518 -1.0303
C -0.8076 -0.4820 -0.5944
H -1.6166 0.1272 -0.9282
H -0.9824 -1.5241 -0.4509
O -2.0363 -0.3724 1.4175
H -2.6191 0.3514 1.6871
