15
Frame 1
H 0.1420 -0.1020 1.5197
N 0.3577 0.0232 0.5414
C 1.6086 -0.7121 0.2016
H 1.5079 -1.7524 0.4795
H 2.4669 -0.2932 0.7151
H 1.7799 -0.6416 -0.8639
C 0.4338 1.4759 0.2194
H 0.6324 1.5905 -0.8370
H 1.2255 1.9650 0.7760
H -0.5093 1.9500 0.4525
C -1.5658 -0.9029 -0.7596
H -0.9213 -0.8945 -1.6080
H -1.5665 -1.7297 -0.0820
O -2.4669 0.0006 -0.7366
H -3.1250 0.0233 -0.0181
15
Frame 2
H 0.1303 -0.1027 1.5123
N 0.3488 0.0207 0.5343
C 1.5989 -0.7183 0.1972
H 1.4943 -1.7584 0.4743
H 2.4558 -0.3014 0.7142
H 1.7735 -0.6470 -0.8676
C 0.4261 1.4729 0.2087
H 0.6338 1.5844 -0.8463
H 1.2126 1.9630 0.7713
H -0.5197 1.9460 0.4322
C -1.5435 -0.8893 -0.7453
H -0.9085 -0.8751 -1.6005
H -1.5456 -1.7275 -0.0819
O -2.4510 0.0111 -0.7120
H -3.1060 0.0215 0.0091
15
Frame 3
H 0.1187 -0.1030 1.5050
N 0.3401 0.0183 0.5273
C 1.5892 -0.7246 0.1928
H 1.4805 -1.7643 0.4691
H 2.4448 -0.3096 0.7132
H 1.7668 -0.6527 -0.8714
C 0.4186 1.4702 0.1979
H 0.6362 1.5784 -0.8553
H 1.1995 1.9613 0.7672
H -0.5299 1.9421 0.4112
C -1.5210 -0.8756 -0.7308
H -0.8965 -0.8557 -1.5935
H -1.5246 -1.7253 -0.0822
O -2.4354 0.0214 -0.6872
H -3.0870 0.0190 0.0365
15
Frame 4
H 0.1072 -0.1031 1.4978
N 0.3315 0.0163 0.5205
C 1.5794 -0.7308 0.1884
H 1.4665 -1.7702 0.4642
H 2.4338 -0.3178 0.7119
H 1.7599 -0.6585 -0.8752
C 0.4114 1.4678 0.1873
H 0.6390 1.5727 -0.8640
H 1.1866 1.9597 0.7633
H -0.5398 1.9384 0.3903
C -1.4983 -0.8619 -0.7161
H -0.8851 -0.8368 -1.5867
H -1.5036 -1.7232 -0.0828
O -2.4200 0.0315 -0.6623
H -3.0683 0.0160 0.0636
15
Frame 5
H 0.0957 -0.1021 1.4903
N 0.3231 0.0146 0.5132
C 1.5696 -0.7372 0.1842
H 1.4517 -1.7763 0.4588
H 2.4228 -0.3268 0.7114
H 1.7535 -0.6643 -0.8786
C 0.4047 1.4653 0.1761
H 0.6453 1.5668 -0.8726
H 1.1721 1.9586 0.7608
H -0.5499 1.9342 0.3655
C -1.4755 -0.8481 -0.7018
H -0.8750 -0.8157 -1.5808
H -1.4825 -1.7207 -0.0843
O -2.4055 0.0405 -0.6351
H -3.0501 0.0112 0.0928
15
Frame 6
H 0.0859 -0.1038 1.4840
N 0.3149 0.0123 0.5072
C 1.5599 -0.7432 0.1784
H 1.4404 -1.7810 0.4568
H 2.4132 -0.3316 0.7039
H 1.7420 -0.6731 -0.8849
C 0.3971 1.4634 0.1678
H 0.6464 1.5628 -0.8790
H 1.1593 1.9567 0.7588
H -0.5599 1.9302 0.3489
C -1.4523 -0.8353 -0.6859
H -0.8628 -0.8032 -1.5726
H -1.4645 -1.7178 -0.0824
O -2.3889 0.0515 -0.6152
H -3.0308 0.0119 0.1142
15
Frame 7
H 0.0743 -0.1027 1.4767
N 0.3065 0.0110 0.5002
C 1.5500 -0.7495 0.1747
H 1.4251 -1.7869 0.4516
H 2.4015 -0.3409 0.7051
H 1.7365 -0.6780 -0.8876
C 0.3910 1.4617 0.1569
H 0.6475 1.5573 -0.8884
H 1.1494 1.9550 0.7524
H -0.5676 1.9279 0.3301
C -1.4293 -0.8214 -0.6712
H -0.8536 -0.7837 -1.5669
H -1.4432 -1.7159 -0.0852
O -2.3751 0.0603 -0.5899
H -3.0131 0.0056 0.1415
15
Frame 8
H 0.0628 -0.1017 1.4689
N 0.2982 0.0099 0.4927
C 1.5400 -0.7561 0.1708
H 1.4117 -1.7919 0.4519
H 2.3908 -0.3468 0.7013
H 1.7271 -0.6880 -0.8914
C 0.3855 1.4607 0.1467
H 0.6524 1.5532 -0.8961
H 1.1383 1.9533 0.7494
H -0.5751 1.9257 0.3101
C -1.4062 -0.8074 -0.6569
H -0.8456 -0.7635 -1.5621
H -1.4216 -1.7142 -0.0897
O -2.3620 0.0688 -0.5641
H -2.9961 -0.0019 0.1686
15
Frame 9
H 0.0518 -0.1000 1.4617
N 0.2899 0.0089 0.4857
C 1.5302 -0.7623 0.1667
H 1.3969 -1.7974 0.4477
H 2.3795 -0.3549 0.7006
H 1.7201 -0.6942 -0.8948
C 0.3801 1.4595 0.1360
H 0.6562 1.5485 -0.9046
H 1.1280 1.9517 0.7448
H -0.5822 1.9236 0.2901
C -1.3831 -0.7938 -0.6418
H -0.8380 -0.7451 -1.5564
H -1.4012 -1.7116 -0.0921
O -2.3490 0.0769 -0.5387
H -2.9793 -0.0097 0.1950
15
Frame 10
H 0.0410 -0.0982 1.4545
N 0.2816 0.0079 0.4787
C 1.5204 -0.7685 0.1627
H 1.3825 -1.8027 0.4444
H 2.3683 -0.3623 0.6993
H 1.7127 -0.7009 -0.8983
C 0.3750 1.4586 0.1257
H 0.6590 1.5442 -0.9129
H 1.1189 1.9496 0.7399
H -0.5886 1.9220 0.2718
C -1.3600 -0.7804 -0.6267
H -0.8308 -0.7277 -1.5507
H -1.3810 -1.7090 -0.0946
O -2.3362 0.0848 -0.5140
H -2.9629 -0.0175 0.2203
15
Frame 11
H 0.0305 -0.0963 1.4473
N 0.2732 0.0069 0.4715
C 1.5107 -0.7744 0.1586
H 1.3685 -1.8076 0.4414
H 2.3571 -0.3691 0.6976
H 1.7051 -0.7078 -0.9019
C 0.3702 1.4578 0.1156
H 0.6615 1.5401 -0.9211
H 1.1105 1.9472 0.7349
H -0.5945 1.9207 0.2546
C -1.3369 -0.7672 -0.6115
H -0.8240 -0.7110 -1.5449
H -1.3612 -1.7061 -0.0970
O -2.3236 0.0924 -0.4897
H -2.9469 -0.0255 0.2446
15
Frame 12
H 0.0202 -0.0942 1.4402
N 0.2646 0.0059 0.4642
C 1.5011 -0.7802 0.1547
H 1.3546 -1.8125 0.4384
H 2.3459 -0.3757 0.6964
H 1.6979 -0.7144 -0.9053
C 0.3656 1.4572 0.1057
H 0.6626 1.5362 -0.9296
H 1.1036 1.9443 0.7289
H -0.5996 1.9200 0.2391
C -1.3139 -0.7542 -0.5964
H -0.8178 -0.6951 -1.5391
H -1.3419 -1.7029 -0.0994
O -2.3114 0.0997 -0.4658
H -2.9314 -0.0340 0.2680
15
Frame 13
H 0.0100 -0.0920 1.4329
N 0.2560 0.0048 0.4568
C 1.4916 -0.7860 0.1510
H 1.3412 -1.8171 0.4362
H 2.3346 -0.3815 0.6950
H 1.6906 -0.7214 -0.9086
C 0.3615 1.4566 0.0958
H 0.6637 1.5323 -0.9381
H 1.0977 1.9409 0.7228
H -0.6040 1.9197 0.2243
C -1.2912 -0.7413 -0.5814
H -0.8124 -0.6789 -1.5334
H -1.3228 -1.6995 -0.1022
O -2.2996 0.1070 -0.4416
H -2.9169 -0.0437 0.2907
15
Frame 14
H 0.0002 -0.0892 1.4259
N 0.2472 0.0038 0.4494
C 1.4824 -0.7913 0.1472
H 1.3278 -1.8216 0.4329
H 2.3235 -0.3874 0.6940
H 1.6837 -0.7276 -0.9119
C 0.3578 1.4560 0.0860
H 0.6660 1.5284 -0.9463
H 1.0919 1.9375 0.7173
H -0.6079 1.9196 0.2087
C -1.2687 -0.7282 -0.5660
H -0.8079 -0.6638 -1.5273
H -1.3041 -1.6959 -0.1051
O -2.2887 0.1134 -0.4178
H -2.9031 -0.0536 0.3131
15
Frame 15
H -0.0097 -0.0865 1.4186
N 0.2382 0.0024 0.4416
C 1.4734 -0.7966 0.1440
H 1.3147 -1.8262 0.4295
H 2.3115 -0.3932 0.6953
H 1.6787 -0.7326 -0.9141
C 0.3540 1.4554 0.0760
H 0.6622 1.5243 -0.9564
H 1.0903 1.9326 0.7076
H -0.6106 1.9205 0.1990
C -1.2463 -0.7156 -0.5512
H -0.8034 -0.6489 -1.5214
H -1.2860 -1.6918 -0.1075
O -2.2769 0.1208 -0.3941
H -2.8900 -0.0645 0.3330
15
Frame 16
H -0.0194 -0.0842 1.4109
N 0.2286 0.0008 0.4333
C 1.4640 -0.8021 0.1400
H 1.3035 -1.8297 0.4314
H 2.3009 -0.3951 0.6900
H 1.6688 -0.7433 -0.9184
C 0.3511 1.4549 0.0666
H 0.6686 1.5211 -0.9630
H 1.0831 1.9282 0.7054
H -0.6138 1.9209 0.1814
C -1.2245 -0.7029 -0.5370
H -0.8003 -0.6317 -1.5158
H -1.2678 -1.6876 -0.1112
O -2.2661 0.1275 -0.3685
H -2.8769 -0.0769 0.3549
15
Frame 17
H -0.0288 -0.0817 1.4034
N 0.2193 -0.0011 0.4251
C 1.4557 -0.8069 0.1370
H 1.2924 -1.8335 0.4300
H 2.2894 -0.3986 0.6901
H 1.6635 -0.7495 -0.9208
C 0.3480 1.4542 0.0572
H 0.6634 1.5174 -0.9733
H 1.0842 1.9218 0.6950
H -0.6151 1.9227 0.1751
C -1.2027 -0.6903 -0.5226
H -0.7966 -0.6177 -1.5097
H -1.2515 -1.6822 -0.1129
O -2.2543 0.1355 -0.3445
H -2.8667 -0.0899 0.3710
15
Frame 18
H -0.0358 -0.0699 1.3952
N 0.2105 0.0002 0.4150
C 1.4494 -0.8112 0.1377
H 1.2802 -1.8361 0.4327
H 2.2768 -0.4005 0.6973
H 1.6636 -0.7561 -0.9187
C 0.3545 1.4578 0.0449
H 0.6739 1.5145 -0.9845
H 1.0930 1.9145 0.6868
H -0.6058 1.9317 0.1597
C -1.1819 -0.6750 -0.5076
H -0.8150 -0.5971 -1.5109
H -1.2400 -1.6814 -0.1324
O -2.2534 0.1398 -0.3051
H -2.8700 -0.1313 0.3900
15
Frame 19
H -0.0464 -0.0750 1.3882
N 0.1999 -0.0050 0.4080
C 1.4388 -0.8163 0.1307
H 1.2696 -1.8412 0.4257
H 2.2662 -0.4057 0.6903
H 1.6531 -0.7613 -0.9257
C 0.3439 1.4526 0.0379
H 0.6633 1.5094 -0.9915
H 1.0825 1.9094 0.6798
H -0.6164 1.9266 0.1527
C -1.1607 -0.6647 -0.4936
H -0.7939 -0.5868 -1.4969
H -1.2189 -1.6711 -0.1184
O -2.2323 0.1501 -0.2911
H -2.8488 -0.1210 0.4040
15
Frame 20
H -0.0532 -0.0719 1.3814
N 0.1902 -0.0072 0.3998
C 1.4309 -0.8202 0.1269
H 1.2610 -1.8437 0.4260
H 2.2565 -0.4060 0.6860
H 1.6451 -0.7691 -0.9297
C 0.3422 1.4518 0.0299
H 0.6633 1.5058 -0.9991
H 1.0824 1.9026 0.6737
H -0.6166 1.9280 0.1439
C -1.1401 -0.6522 -0.4782
H -0.7928 -0.5753 -1.4894
H -1.2049 -1.6651 -0.1202
O -2.2218 0.1573 -0.2668
H -2.8423 -0.1347 0.4159
15
Frame 21
H -0.0628 -0.0698 1.3733
N 0.1786 -0.0104 0.3905
C 1.4226 -0.8244 0.1243
H 1.2527 -1.8462 0.4287
H 2.2446 -0.4048 0.6841
H 1.6387 -0.7780 -0.9319
C 0.3394 1.4506 0.0213
H 0.6543 1.5027 -1.0096
H 1.0871 1.8925 0.6622
H -0.6157 1.9322 0.1434
C -1.1196 -0.6411 -0.4662
H -0.7897 -0.5615 -1.4836
H -1.1898 -1.6590 -0.1218
O -2.2110 0.1630 -0.2459
H -2.8294 -0.1458 0.4310
15
Frame 22
H -0.0576 -0.0675 1.3743
N 0.1828 -0.0110 0.3909
C 1.4266 -0.8245 0.1222
H 1.2591 -1.8452 0.4313
H 2.2499 -0.4014 0.6772
H 1.6381 -0.7817 -0.9350
C 0.3410 1.4499 0.0184
H 0.6455 1.5007 -1.0153
H 1.0956 1.8908 0.6514
H -0.6121 1.9316 0.1517
C -1.1175 -0.6424 -0.4477
H -0.8115 -0.5531 -1.4708
H -1.1791 -1.6638 -0.1130
O -2.1985 0.1575 -0.1751
H -2.8622 -0.1399 0.3394
15
Frame 23
H -0.0525 -0.0652 1.3753
N 0.1870 -0.0116 0.3912
C 1.4305 -0.8247 0.1200
H 1.2655 -1.8441 0.4339
H 2.2551 -0.3980 0.6702
H 1.6376 -0.7854 -0.9381
C 0.3426 1.4492 0.0156
H 0.6366 1.4986 -1.0211
H 1.1041 1.8891 0.6406
H -0.6084 1.9311 0.1601
C -1.1153 -0.6437 -0.4292
H -0.8333 -0.5446 -1.4581
H -1.1685 -1.6685 -0.1043
O -2.1861 0.1520 -0.1042
H -2.8949 -0.1341 0.2478
15
Frame 24
H -0.0473 -0.0628 1.3763
N 0.1913 -0.0122 0.3916
C 1.4345 -0.8248 0.1179
H 1.2719 -1.8431 0.4366
H 2.2603 -0.3946 0.6632
H 1.6370 -0.7891 -0.9413
C 0.3442 1.4485 0.0127
H 0.6278 1.4966 -1.0268
H 1.1125 1.8874 0.6298
H -0.6048 1.9305 0.1684
C -1.1132 -0.6450 -0.4107
H -0.8551 -0.5362 -1.4453
H -1.1578 -1.6733 -0.0956
O -2.1737 0.1465 -0.0334
H -2.9277 -0.1282 0.1562
15
Frame 25
H -0.0421 -0.0605 1.3773
N 0.1955 -0.0128 0.3920
C 1.4384 -0.8249 0.1158
H 1.2783 -1.8421 0.4392
H 2.2656 -0.3913 0.6563
H 1.6364 -0.7929 -0.9444
C 0.3457 1.4478 0.0099
H 0.6190 1.4946 -1.0325
H 1.1210 1.8857 0.6190
H -0.6012 1.9300 0.1768
C -1.1111 -0.6464 -0.3923
H -0.8769 -0.5278 -1.4325
H -1.1471 -1.6781 -0.0868
O -2.1612 0.1410 0.0374
H -2.9605 -0.1224 0.0647
15
Frame 26
H -0.0370 -0.0582 1.3783
N 0.1997 -0.0134 0.3923
C 1.4424 -0.8251 0.1136
H 1.2847 -1.8410 0.4418
H 2.2708 -0.3879 0.6493
H 1.6359 -0.7966 -0.9475
C 0.3473 1.4471 0.0071
H 0.6101 1.4925 -1.0383
H 1.1295 1.8840 0.6082
H -0.5975 1.9294 0.1851
C -1.1089 -0.6477 -0.3738
H -0.8987 -0.5193 -1.4198
H -1.1365 -1.6828 -0.0781
O -2.1488 0.1355 0.1083
H -2.9932 -0.1165 -0.0269
15
Frame 27
H -0.0318 -0.0559 1.3793
N 0.2039 -0.0140 0.3927
C 1.4463 -0.8252 0.1115
H 1.2911 -1.8400 0.4444
H 2.2761 -0.3845 0.6424
H 1.6353 -0.8003 -0.9506
C 0.3489 1.4464 0.0042
H 0.6013 1.4905 -1.0440
H 1.1380 1.8823 0.5974
H -0.5939 1.9289 0.1935
C -1.1068 -0.6490 -0.3553
H -0.9205 -0.5109 -1.4070
H -1.1258 -1.6876 -0.0693
O -2.1363 0.1300 0.1791
H -3.0260 -0.1107 -0.1185
15
Frame 28
H -0.0363 -0.0547 1.3746
N 0.1917 -0.0184 0.3854
C 1.4378 -0.8283 0.1068
H 1.2824 -1.8435 0.4380
H 2.2641 -0.3861 0.6414
H 1.6295 -0.8015 -0.9547
C 0.3447 1.4440 -0.0020
H 0.5939 1.4866 -1.0510
H 1.1382 1.8731 0.5899
H -0.5950 1.9307 0.1911
C -1.0864 -0.6394 -0.3415
H -0.9159 -0.5048 -1.3970
H -1.1131 -1.6808 -0.0640
O -2.1250 0.1325 0.1952
H -3.0106 -0.1094 -0.1123
15
Frame 29
H -0.0408 -0.0536 1.3696
N 0.1792 -0.0228 0.3779
C 1.4292 -0.8312 0.1021
H 1.2744 -1.8464 0.4340
H 2.2525 -0.3862 0.6385
H 1.6222 -0.8048 -0.9591
C 0.3411 1.4417 -0.0077
H 0.5882 1.4832 -1.0572
H 1.1384 1.8634 0.5838
H -0.5955 1.9328 0.1882
C -1.0663 -0.6293 -0.3286
H -0.9107 -0.4982 -1.3875
H -1.1016 -1.6733 -0.0596
O -2.1141 0.1361 0.2090
H -2.9961 -0.1114 -0.1033
15
Frame 30
H -0.0443 -0.0528 1.3647
N 0.1666 -0.0275 0.3704
C 1.4208 -0.8340 0.0967
H 1.2672 -1.8490 0.4295
H 2.2413 -0.3855 0.6337
H 1.6141 -0.8081 -0.9645
C 0.3377 1.4393 -0.0129
H 0.5856 1.4799 -1.0622
H 1.1369 1.8538 0.5807
H -0.5966 1.9345 0.1832
C -1.0466 -0.6192 -0.3154
H -0.9052 -0.4935 -1.3776
H -1.0916 -1.6653 -0.0532
O -2.1036 0.1409 0.2210
H -2.9822 -0.1137 -0.0940
