22
Frame 1
C 1.3638 0.1387 0.6903
C 0.1785 -0.8493 0.7659
O 0.2846 -1.7710 1.7091
C -1.1868 -0.1201 0.7439
H -2.0108 -0.8589 0.5937
H -1.3161 0.3246 1.7644
H 1.4280 0.6190 1.7006
C 1.2087 1.2306 -0.3802
H 2.3145 -0.4243 0.5216
H 1.3428 -2.0606 -0.8416
C 0.3253 -1.6249 -0.7284
N -0.6080 -2.8798 -0.6491
H -0.0410 -1.0378 -1.5960
N -1.1906 -3.7589 -0.4255
H 1.2514 0.7775 -1.4019
H 2.0547 1.9570 -0.2906
C -0.1244 1.9791 -0.2043
C -1.3069 0.9975 -0.3044
H -0.2219 2.7646 -0.9933
H -0.1402 2.4767 0.7968
H -1.3434 0.5649 -1.3349
H -2.2621 1.5555 -0.1362
22
Frame 2
C 1.3775 0.1398 0.6990
C 0.1975 -0.8529 0.7730
O 0.2866 -1.7690 1.7181
C -1.2063 -0.1219 0.7100
H -2.0058 -0.8725 0.5098
H -1.3739 0.2939 1.7349
H 1.4362 0.6241 1.7076
C 1.2199 1.2251 -0.3772
H 2.3298 -0.4219 0.5345
H 1.3152 -2.0052 -0.9301
C 0.3005 -1.5966 -0.7344
N -0.5955 -2.9342 -0.6010
H -0.1597 -1.0452 -1.5786
N -1.1403 -3.8190 -0.3137
H 1.2478 0.7641 -1.3960
H 2.0721 1.9457 -0.3015
C -0.1059 1.9841 -0.1914
C -1.2991 1.0185 -0.3167
H -0.1916 2.7859 -0.9652
H -0.1204 2.4619 0.8193
H -1.3362 0.6095 -1.3569
H -2.2482 1.5860 -0.1435
22
Frame 3
C 1.3912 0.1409 0.7055
C 0.2165 -0.8564 0.7788
O 0.2897 -1.7663 1.7260
C -1.2246 -0.1238 0.6757
H -1.9994 -0.8840 0.4306
H -1.4270 0.2644 1.7032
H 1.4465 0.6277 1.7130
C 1.2297 1.2210 -0.3744
H 2.3448 -0.4193 0.5428
H 1.2824 -1.9565 -1.0064
C 0.2764 -1.5710 -0.7383
N -0.5830 -2.9850 -0.5543
H -0.2656 -1.0580 -1.5562
N -1.0946 -3.8697 -0.2107
H 1.2441 0.7542 -1.3911
H 2.0869 1.9369 -0.3110
C -0.0897 1.9886 -0.1786
C -1.2923 1.0380 -0.3292
H -0.1645 2.8063 -0.9369
H -0.1040 2.4464 0.8413
H -1.3275 0.6519 -1.3781
H -2.2359 1.6137 -0.1517
22
Frame 4
C 1.4060 0.1415 0.7082
C 0.2359 -0.8590 0.7852
O 0.2926 -1.7601 1.7367
C -1.2414 -0.1253 0.6411
H -1.9922 -0.8936 0.3577
H -1.4749 0.2382 1.6693
H 1.4638 0.6289 1.7152
C 1.2371 1.2194 -0.3722
H 2.3599 -0.4175 0.5416
H 1.2478 -1.9179 -1.0661
C 0.2543 -1.5488 -0.7379
N -0.5752 -3.0320 -0.5119
H -0.3533 -1.0731 -1.5305
N -1.0574 -3.9120 -0.1174
H 1.2387 0.7500 -1.3880
H 2.0978 1.9318 -0.3196
C -0.0771 1.9926 -0.1643
C -1.2863 1.0554 -0.3434
H -0.1419 2.8278 -0.9043
H -0.0929 2.4271 0.8656
H -1.3148 0.6901 -1.4001
H -2.2264 1.6366 -0.1648
22
Frame 5
C 1.4200 0.1427 0.7134
C 0.2561 -0.8633 0.7906
O 0.2990 -1.7593 1.7425
C -1.2563 -0.1269 0.6109
H -1.9877 -0.9010 0.3007
H -1.5112 0.2178 1.6389
H 1.4758 0.6317 1.7197
C 1.2446 1.2166 -0.3691
H 2.3758 -0.4132 0.5465
H 1.2113 -1.8767 -1.1204
C 0.2313 -1.5238 -0.7388
N -0.5687 -3.0734 -0.4751
H -0.4332 -1.0861 -1.5060
N -1.0263 -3.9464 -0.0378
H 1.2380 0.7435 -1.3835
H 2.1073 1.9273 -0.3254
C -0.0662 1.9936 -0.1547
C -1.2812 1.0686 -0.3568
H -0.1216 2.8417 -0.8809
H -0.0849 2.4109 0.8823
H -1.3041 0.7203 -1.4194
H -2.2179 1.6555 -0.1776
22
Frame 6
C 1.4356 0.1430 0.7147
C 0.2768 -0.8667 0.7961
O 0.3066 -1.7543 1.7512
C -1.2702 -0.1281 0.5810
H -1.9858 -0.9072 0.2532
H -1.5404 0.2036 1.6080
H 1.4955 0.6309 1.7213
C 1.2508 1.2170 -0.3655
H 2.3920 -0.4104 0.5412
H 1.1761 -1.8379 -1.1646
C 0.2089 -1.5015 -0.7364
N -0.5668 -3.1132 -0.4391
H -0.5026 -1.1020 -1.4809
N -1.0065 -3.9764 0.0346
H 1.2379 0.7443 -1.3802
H 2.1137 1.9279 -0.3272
C -0.0587 1.9938 -0.1428
C -1.2760 1.0783 -0.3738
H -0.1057 2.8568 -0.8517
H -0.0833 2.3894 0.9023
H -1.2861 0.7440 -1.4410
H -2.2117 1.6686 -0.2003
22
Frame 7
C 1.4494 0.1441 0.7217
C 0.2993 -0.8739 0.8006
O 0.3145 -1.7587 1.7535
C -1.2807 -0.1293 0.5572
H -1.9872 -0.9118 0.2222
H -1.5557 0.1950 1.5843
H 1.5037 0.6337 1.7278
C 1.2577 1.2137 -0.3609
H 2.4095 -0.4036 0.5500
H 1.1411 -1.7847 -1.2093
C 0.1862 -1.4745 -0.7366
N -0.5664 -3.1473 -0.4124
H -0.5706 -1.1170 -1.4562
N -0.9882 -4.0012 0.0934
H 1.2428 0.7378 -1.3744
H 2.1200 1.9259 -0.3281
C -0.0516 1.9911 -0.1388
C -1.2717 1.0844 -0.3888
H -0.0901 2.8627 -0.8380
H -0.0823 2.3748 0.9108
H -1.2742 0.7599 -1.4593
H -2.2053 1.6790 -0.2188
22
Frame 8
C 1.4636 0.1434 0.7278
C 0.3224 -0.8831 0.8037
O 0.3195 -1.7590 1.7598
C -1.2898 -0.1308 0.5328
H -1.9936 -0.9152 0.2017
H -1.5572 0.1916 1.5618
H 1.5139 0.6334 1.7340
C 1.2642 1.2107 -0.3550
H 2.4279 -0.3973 0.5557
H 1.1103 -1.7086 -1.2555
C 0.1640 -1.4506 -0.7356
N -0.5699 -3.1816 -0.3875
H -0.6395 -1.1440 -1.4273
N -0.9778 -4.0246 0.1473
H 1.2505 0.7345 -1.3687
H 2.1249 1.9253 -0.3237
C -0.0460 1.9868 -0.1349
C -1.2673 1.0878 -0.4072
H -0.0761 2.8668 -0.8242
H -0.0856 2.3584 0.9188
H -1.2582 0.7704 -1.4797
H -2.2001 1.6856 -0.2441
22
Frame 9
C 1.4764 0.1348 0.7321
C 0.3437 -0.9003 0.7927
O 0.2987 -1.7504 1.7658
C -1.2972 -0.1317 0.5004
H -2.0126 -0.9106 0.1871
H -1.5271 0.1891 1.5384
H 1.5226 0.6167 1.7423
C 1.2745 1.2096 -0.3420
H 2.4439 -0.3994 0.5564
H 1.0688 -1.5568 -1.3307
C 0.1339 -1.4326 -0.7467
N -0.5712 -3.2197 -0.3504
H -0.7380 -1.2240 -1.3887
N -0.9454 -4.0468 0.2319
H 1.2710 0.7439 -1.3606
H 2.1317 1.9280 -0.2988
C -0.0394 1.9817 -0.1292
C -1.2592 1.0911 -0.4341
H -0.0575 2.8727 -0.8047
H -0.0949 2.3367 0.9295
H -1.2299 0.7770 -1.5070
H -2.1927 1.6909 -0.2839
22
Frame 10
C 1.4828 0.1171 0.7323
C 0.3694 -0.9384 0.7556
O 0.2627 -1.7385 1.7608
C -1.2928 -0.1318 0.4584
H -2.0544 -0.8835 0.1974
H -1.4143 0.1892 1.5147
H 1.5178 0.5706 1.7565
C 1.2941 1.2245 -0.3098
H 2.4561 -0.4054 0.5497
H 0.9559 -1.2961 -1.4490
C 0.0880 -1.4328 -0.7787
N -0.5860 -3.2663 -0.3009
H -0.8682 -1.4210 -1.3235
N -0.8988 -4.0655 0.3525
H 1.3372 0.7997 -1.3444
H 2.1396 1.9522 -0.2075
C -0.0334 1.9808 -0.1267
C -1.2402 1.0895 -0.4780
H -0.0374 2.8799 -0.7920
H -0.1230 2.3238 0.9338
H -1.1743 0.7679 -1.5464
H -2.1808 1.6841 -0.3548
22
Frame 11
C 1.4873 0.1028 0.7184
C 0.3911 -0.9693 0.7231
O 0.2331 -1.7094 1.7622
C -1.2920 -0.1348 0.3939
H -2.0953 -0.8465 0.1479
H -1.3334 0.1518 1.4663
H 1.5271 0.5286 1.7549
C 1.3062 1.2429 -0.2885
H 2.4609 -0.4144 0.5177
H 0.8201 -1.1022 -1.5132
C 0.0562 -1.4488 -0.7987
N -0.5922 -3.3193 -0.2274
H -0.9109 -1.6445 -1.2771
N -0.8640 -4.0801 0.4874
H 1.3765 0.8590 -1.3369
H 2.1452 1.9712 -0.1402
C -0.0270 1.9900 -0.1097
C -1.2252 1.1086 -0.5125
H -0.0193 2.9080 -0.7486
H -0.1391 2.3026 0.9582
H -1.1355 0.8060 -1.5840
H -2.1698 1.6978 -0.3931
22
Frame 12
C 1.4915 0.0986 0.7084
C 0.4141 -0.9907 0.7033
O 0.2297 -1.6926 1.7597
C -1.2937 -0.1393 0.3363
H -2.1255 -0.8158 0.0850
H -1.2911 0.1066 1.4192
H 1.5306 0.5110 1.7507
C 1.3118 1.2540 -0.2803
H 2.4682 -0.4113 0.4999
H 0.7133 -0.9923 -1.5385
C 0.0356 -1.4558 -0.8063
N -0.5901 -3.3633 -0.1568
H -0.8943 -1.8117 -1.2550
N -0.8674 -4.0928 0.5880
H 1.3892 0.8906 -1.3351
H 2.1499 1.9799 -0.1136
C -0.0215 1.9991 -0.0943
C -1.2179 1.1314 -0.5311
H -0.0061 2.9328 -0.7100
H -0.1426 2.2856 0.9798
H -1.1210 0.8584 -1.6096
H -2.1630 1.7174 -0.3999
22
Frame 13
C 1.4984 0.0998 0.7005
C 0.4382 -1.0047 0.6904
O 0.2385 -1.6815 1.7558
C -1.2978 -0.1436 0.2883
H -2.1520 -0.7894 0.0297
H -1.2662 0.0652 1.3774
H 1.5363 0.5052 1.7460
C 1.3143 1.2626 -0.2779
H 2.4786 -0.4026 0.4871
H 0.6352 -0.9290 -1.5494
C 0.0182 -1.4539 -0.8066
N -0.5911 -3.3997 -0.0955
H -0.8560 -1.9347 -1.2402
N -0.8918 -4.1042 0.6642
H 1.3898 0.9094 -1.3362
H 2.1529 1.9871 -0.1061
C -0.0184 2.0054 -0.0799
C -1.2138 1.1503 -0.5439
H 0.0014 2.9533 -0.6734
H -0.1443 2.2669 1.0000
H -1.1117 0.9043 -1.6284
H -2.1589 1.7339 -0.4022
22
Frame 14
C 1.5060 0.1025 0.6962
C 0.4622 -1.0157 0.6805
O 0.2546 -1.6781 1.7489
C -1.3044 -0.1471 0.2499
H -2.1789 -0.7649 -0.0115
H -1.2476 0.0303 1.3422
H 1.5400 0.5045 1.7433
C 1.3163 1.2682 -0.2770
H 2.4910 -0.3910 0.4819
H 0.5736 -0.8856 -1.5550
C -0.0005 -1.4442 -0.8035
N -0.6027 -3.4310 -0.0495
H -0.8128 -2.0242 -1.2276
N -0.9121 -4.1132 0.7270
H 1.3892 0.9198 -1.3370
H 2.1547 1.9930 -0.1044
C -0.0164 2.0085 -0.0700
C -1.2115 1.1642 -0.5542
H 0.0066 2.9667 -0.6464
H -0.1458 2.2511 1.0139
H -1.1056 0.9389 -1.6429
H -2.1558 1.7472 -0.4048
22
Frame 15
C 1.5163 0.1055 0.6911
C 0.4849 -1.0224 0.6734
O 0.2732 -1.6747 1.7428
C -1.3139 -0.1506 0.2141
H -2.2059 -0.7426 -0.0502
H -1.2386 -0.0010 1.3081
H 1.5518 0.5045 1.7395
C 1.3175 1.2733 -0.2768
H 2.5043 -0.3807 0.4718
H 0.5254 -0.8557 -1.5573
C -0.0184 -1.4311 -0.7965
N -0.6202 -3.4601 -0.0086
H -0.7657 -2.0940 -1.2119
N -0.9333 -4.1203 0.7853
H 1.3859 0.9287 -1.3384
H 2.1546 2.0000 -0.1059
C -0.0161 2.0091 -0.0594
C -1.2100 1.1754 -0.5648
H 0.0088 2.9786 -0.6170
H -0.1490 2.2309 1.0285
H -1.0980 0.9687 -1.6566
H -2.1536 1.7584 -0.4110
22
Frame 16
C 1.5296 0.1093 0.6851
C 0.5064 -1.0246 0.6675
O 0.2925 -1.6694 1.7365
C -1.3265 -0.1550 0.1779
H -2.2333 -0.7214 -0.0947
H -1.2424 -0.0339 1.2738
H 1.5705 0.5054 1.7344
C 1.3188 1.2785 -0.2778
H 2.5190 -0.3709 0.4578
H 0.4857 -0.8357 -1.5591
C -0.0353 -1.4169 -0.7866
N -0.6413 -3.4884 0.0303
H -0.7194 -2.1490 -1.1898
N -0.9521 -4.1256 0.8437
H 1.3808 0.9368 -1.3406
H 2.1541 2.0082 -0.1108
C -0.0162 2.0075 -0.0471
C -1.2084 1.1851 -0.5749
H 0.0090 2.9892 -0.5831
H -0.1522 2.2053 1.0450
H -1.0884 0.9968 -1.6691
H -2.1511 1.7687 -0.4183
22
Frame 17
C 1.5455 0.1137 0.6777
C 0.5279 -1.0237 0.6627
O 0.3155 -1.6645 1.7300
C -1.3403 -0.1601 0.1421
H -2.2587 -0.7035 -0.1410
H -1.2534 -0.0653 1.2396
H 1.5961 0.5062 1.7279
C 1.3199 1.2847 -0.2787
H 2.5344 -0.3619 0.4383
H 0.4533 -0.8225 -1.5599
C -0.0511 -1.4013 -0.7743
N -0.6629 -3.5153 0.0701
H -0.6757 -2.1917 -1.1613
N -0.9777 -4.1306 0.8988
H 1.3751 0.9468 -1.3432
H 2.1522 2.0189 -0.1160
C -0.0176 2.0043 -0.0336
C -1.2065 1.1928 -0.5855
H 0.0063 2.9987 -0.5458
H -0.1574 2.1756 1.0626
H -1.0760 1.0217 -1.6815
H -2.1488 1.7770 -0.4290
22
Frame 18
C 1.5670 0.1160 0.6651
C 0.5455 -1.0165 0.6592
O 0.3284 -1.6462 1.7277
C -1.3590 -0.1668 0.1013
H -2.2846 -0.6870 -0.2041
H -1.2846 -0.0996 1.2010
H 1.6403 0.5018 1.7165
C 1.3218 1.2921 -0.2794
H 2.5501 -0.3595 0.4024
H 0.4252 -0.8145 -1.5604
C -0.0661 -1.3851 -0.7598
N -0.6820 -3.5405 0.1158
H -0.6350 -2.2257 -1.1255
N -0.9945 -4.1306 0.9636
H 1.3685 0.9615 -1.3466
H 2.1493 2.0323 -0.1202
C -0.0199 1.9965 -0.0143
C -1.2039 1.1995 -0.5973
H 0.0008 3.0076 -0.4932
H -0.1639 2.1311 1.0863
H -1.0581 1.0478 -1.6943
H -2.1453 1.7859 -0.4439
22
Frame 19
C 1.5916 0.1171 0.6491
C 0.5612 -1.0057 0.6571
O 0.3370 -1.6214 1.7278
C -1.3795 -0.1747 0.0570
H -2.3079 -0.6731 -0.2779
H -1.3275 -0.1353 1.1590
H 1.6956 0.4941 1.7011
C 1.3239 1.3003 -0.2794
H 2.5646 -0.3610 0.3559
H 0.4036 -0.8116 -1.5600
C -0.0797 -1.3681 -0.7439
N -0.6991 -3.5638 0.1657
H -0.5998 -2.2504 -1.0845
N -1.0089 -4.1269 1.0328
H 1.3619 0.9799 -1.3502
H 2.1450 2.0478 -0.1222
C -0.0230 1.9858 0.0080
C -1.2010 1.2052 -0.6089
H -0.0072 3.0140 -0.4332
H -0.1713 2.0789 1.1122
H -1.0380 1.0748 -1.7064
H -2.1415 1.7941 -0.4592
22
Frame 20
C 1.6195 0.1164 0.6287
C 0.5743 -0.9906 0.6560
O 0.3385 -1.5862 1.7312
C -1.4018 -0.1843 0.0072
H -2.3278 -0.6615 -0.3665
H -1.3834 -0.1735 1.1109
H 1.7635 0.4819 1.6800
C 1.3262 1.3094 -0.2786
H 2.5770 -0.3672 0.2968
H 0.3874 -0.8132 -1.5590
C -0.0918 -1.3507 -0.7269
N -0.7135 -3.5845 0.2224
H -0.5688 -2.2687 -1.0391
N -1.0192 -4.1171 1.1100
H 1.3551 1.0031 -1.3542
H 2.1393 2.0654 -0.1213
C -0.0268 1.9710 0.0344
C -1.1977 1.2105 -0.6201
H -0.0178 3.0173 -0.3624
H -0.1791 2.0159 1.1411
H -1.0159 1.1048 -1.7173
H -2.1370 1.8022 -0.4733
22
Frame 21
C 1.6491 0.1141 0.6046
C 0.5857 -0.9731 0.6554
O 0.3364 -1.5443 1.7363
C -1.4243 -0.1948 -0.0459
H -2.3426 -0.6519 -0.4631
H -1.4459 -0.2112 1.0582
H 1.8391 0.4650 1.6534
C 1.3286 1.3190 -0.2765
H 2.5863 -0.3762 0.2288
H 0.3753 -0.8169 -1.5571
C -0.1035 -1.3322 -0.7096
N -0.7270 -3.6018 0.2843
H -0.5426 -2.2802 -0.9921
N -1.0266 -4.1009 1.1933
H 1.3500 1.0310 -1.3574
H 2.1317 2.0846 -0.1153
C -0.0317 1.9521 0.0630
C -1.1943 1.2144 -0.6313
H -0.0311 3.0160 -0.2840
H -0.1880 1.9435 1.1700
H -0.9924 1.1351 -1.7274
H -2.1322 1.8090 -0.4876
22
Frame 22
C 1.6786 0.1111 0.5790
C 0.5977 -0.9554 0.6545
O 0.3354 -1.5013 1.7412
C -1.4447 -0.2063 -0.1001
H -2.3513 -0.6444 -0.5629
H -1.5097 -0.2485 1.0022
H 1.9141 0.4466 1.6236
C 1.3309 1.3283 -0.2735
H 2.5938 -0.3845 0.1598
H 0.3662 -0.8217 -1.5546
C -0.1143 -1.3124 -0.6923
N -0.7401 -3.6161 0.3491
H -0.5198 -2.2860 -0.9451
N -1.0364 -4.0804 1.2774
H 1.3459 1.0606 -1.3600
H 2.1230 2.1038 -0.1059
C -0.0368 1.9306 0.0911
C -1.1915 1.2171 -0.6408
H -0.0458 3.0098 -0.2060
H -0.1960 1.8694 1.1961
H -0.9714 1.1656 -1.7352
H -2.1280 1.8141 -0.4973
22
Frame 23
C 1.7064 0.1093 0.5542
C 0.6123 -0.9400 0.6538
O 0.3448 -1.4672 1.7442
C -1.4611 -0.2174 -0.1507
H -2.3537 -0.6403 -0.6544
H -1.5673 -0.2794 0.9488
H 1.9846 0.4291 1.5929
C 1.3324 1.3377 -0.2697
H 2.5997 -0.3888 0.0940
H 0.3595 -0.8250 -1.5501
C -0.1245 -1.2909 -0.6742
N -0.7565 -3.6283 0.4121
H -0.5021 -2.2850 -0.8999
N -1.0548 -4.0593 1.3559
H 1.3440 1.0912 -1.3615
H 2.1124 2.1231 -0.0929
C -0.0430 1.9085 0.1158
C -1.1892 1.2176 -0.6508
H -0.0622 2.9997 -0.1335
H -0.2052 1.7971 1.2164
H -0.9519 1.1922 -1.7426
H -2.1247 1.8162 -0.5078
22
Frame 24
C 1.7319 0.1089 0.5315
C 0.6303 -0.9285 0.6534
O 0.3677 -1.4470 1.7448
C -1.4729 -0.2275 -0.1969
H -2.3503 -0.6397 -0.7368
H -1.6178 -0.3031 0.8986
H 2.0475 0.4154 1.5636
C 1.3329 1.3462 -0.2658
H 2.6063 -0.3885 0.0357
H 0.3544 -0.8255 -1.5430
C -0.1341 -1.2674 -0.6550
N -0.7768 -3.6391 0.4720
H -0.4863 -2.2792 -0.8573
N -1.0833 -4.0394 1.4266
H 1.3426 1.1194 -1.3620
H 2.1005 2.1415 -0.0794
C -0.0500 1.8869 0.1361
C -1.1884 1.2176 -0.6607
H -0.0790 2.9868 -0.0696
H -0.2150 1.7307 1.2309
H -0.9369 1.2150 -1.7497
H -2.1234 1.8167 -0.5171
22
Frame 25
C 1.7546 0.1114 0.5122
C 0.6528 -0.9216 0.6528
O 0.4070 -1.4443 1.7419
C -1.4797 -0.2371 -0.2380
H -2.3408 -0.6421 -0.8101
H -1.6628 -0.3218 0.8525
H 2.0978 0.4091 1.5379
C 1.3321 1.3538 -0.2638
H 2.6157 -0.3815 -0.0106
H 0.3509 -0.8244 -1.5337
C -0.1424 -1.2430 -0.6345
N -0.8009 -3.6499 0.5277
H -0.4735 -2.2692 -0.8169
N -1.1246 -4.0235 1.4875
H 1.3394 1.1426 -1.3633
H 2.0886 2.1581 -0.0707
C -0.0568 1.8678 0.1521
C -1.1887 1.2171 -0.6694
H -0.0950 2.9739 -0.0157
H -0.2231 1.6733 1.2407
H -0.9267 1.2363 -1.7559
H -2.1241 1.8147 -0.5227
22
Frame 26
C 1.7752 0.1166 0.4960
C 0.6794 -0.9189 0.6517
O 0.4613 -1.4579 1.7345
C -1.4821 -0.2464 -0.2758
H -2.3240 -0.6450 -0.8817
H -1.7079 -0.3391 0.8075
H 2.1382 0.4102 1.5164
C 1.3302 1.3605 -0.2638
H 2.6284 -0.3689 -0.0466
H 0.3487 -0.8240 -1.5226
C -0.1493 -1.2181 -0.6124
N -0.8289 -3.6609 0.5807
H -0.4639 -2.2565 -0.7772
N -1.1749 -4.0101 1.5421
H 1.3337 1.1604 -1.3655
H 2.0767 2.1735 -0.0679
C -0.0630 1.8514 0.1650
C -1.1903 1.2170 -0.6754
H -0.1095 2.9619 0.0292
H -0.2290 1.6250 1.2476
H -0.9218 1.2586 -1.7597
H -2.1269 1.8107 -0.5222
22
Frame 27
C 1.7868 0.1258 0.4941
C 0.7125 -0.9307 0.6472
O 0.5487 -1.5199 1.7089
C -1.4796 -0.2507 -0.2982
H -2.3095 -0.6484 -0.9236
H -1.7379 -0.3406 0.7799
H 2.1410 0.4253 1.5160
C 1.3266 1.3627 -0.2672
H 2.6520 -0.3439 -0.0437
H 0.3415 -0.8174 -1.5091
C -0.1596 -1.1918 -0.5887
N -0.8745 -3.6794 0.6083
H -0.4639 -2.2387 -0.7455
N -1.2094 -4.0028 1.5826
H 1.3268 1.1594 -1.3683
H 2.0678 2.1821 -0.0775
C -0.0679 1.8454 0.1663
C -1.1937 1.2184 -0.6818
H -0.1169 2.9570 0.0421
H -0.2343 1.6074 1.2461
H -0.9248 1.2730 -1.7654
H -2.1319 1.8076 -0.5224
22
Frame 28
C 1.8020 0.1320 0.4824
C 0.7420 -0.9361 0.6427
O 0.6278 -1.5640 1.6842
C -1.4775 -0.2582 -0.3346
H -2.2817 -0.6507 -0.9984
H -1.7910 -0.3544 0.7301
H 2.1668 0.4290 1.5013
C 1.3226 1.3682 -0.2670
H 2.6655 -0.3262 -0.0682
H 0.3408 -0.8179 -1.4944
C -0.1678 -1.1672 -0.5641
N -0.9181 -3.6893 0.6575
H -0.4613 -2.2234 -0.7086
N -1.2441 -3.9779 1.6457
H 1.3185 1.1713 -1.3696
H 2.0561 2.1948 -0.0778
C -0.0744 1.8330 0.1778
C -1.1962 1.2202 -0.6860
H -0.1295 2.9470 0.0810
H -0.2402 1.5684 1.2515
H -0.9236 1.2982 -1.7674
H -2.1368 1.8030 -0.5181
22
Frame 29
C 1.8080 0.1402 0.4838
C 0.7792 -0.9588 0.6267
O 0.7412 -1.6573 1.6235
C -1.4725 -0.2604 -0.3557
H -2.2601 -0.6517 -1.0433
H -1.8284 -0.3529 0.6977
H 2.1505 0.4405 1.5097
C 1.3179 1.3707 -0.2670
H 2.6925 -0.2945 -0.0537
H 0.3301 -0.8152 -1.4817
C -0.1818 -1.1427 -0.5403
N -0.9769 -3.7033 0.6914
H -0.4733 -2.2051 -0.6800
N -1.2542 -3.9543 1.7045
H 1.3129 1.1717 -1.3691
H 2.0476 2.2015 -0.0812
C -0.0803 1.8309 0.1788
C -1.1993 1.2233 -0.6924
H -0.1364 2.9456 0.0902
H -0.2484 1.5571 1.2497
H -0.9258 1.3146 -1.7724
H -2.1426 1.8000 -0.5195
22
Frame 30
C 1.8074 0.1506 0.4966
C 0.8246 -0.9928 0.5958
O 0.8823 -1.7823 1.5162
C -1.4639 -0.2592 -0.3699
H -2.2401 -0.6505 -1.0741
H -1.8562 -0.3457 0.6736
H 2.0937 0.4579 1.5382
C 1.3119 1.3689 -0.2693
H 2.7328 -0.2458 -0.0018
H 0.3136 -0.8142 -1.4740
C -0.1971 -1.1185 -0.5185
N -1.0386 -3.7137 0.7292
H -0.4936 -2.1854 -0.6548
N -1.2611 -3.9292 1.7638
H 1.3042 1.1553 -1.3686
H 2.0415 2.2030 -0.0968
C -0.0848 1.8343 0.1760
C -1.2030 1.2289 -0.6980
H -0.1377 2.9491 0.0873
H -0.2558 1.5610 1.2464
H -0.9310 1.3294 -1.7776
H -2.1491 1.7989 -0.5198
