Molecule-1
  ViewerPro         3D                             0

  6  5  0  0  0  0  0  0  0  0999 V2000
    8.7322  -10.6008   -0.0002 C   0  0  0  0  0  0  0  0  0  0
   10.0310  -10.3082    0.0002 C   0  0  0  0  0  0  0  0  0  0
    8.4348  -11.5555   -0.0009 H   0  0  0  0  0  0  0  0  0  0
    7.5601   -9.3305    0.0005 Cl  0  0  0  0  0  0  0  0  0  0
   10.3284   -9.3534    0.0008 H   0  0  0  0  0  0  0  0  0  0
   11.2030  -11.5786   -0.0003 Cl  0  0  0  0  0  0  0  0  0  0
  1  2  2  0  0  0
  1  3  1  0  0  0
  1  4  1  0  0  0
  2  5  1  0  0  0
  2  6  1  0  0  0
M  END
