Molecule-1
  ViewerPro         3D                             0

  8  7  0  0  0  0  0  0  0  0999 V2000
   15.0100   -9.1261    0.3558 C   0  0  0  0  0  0  0  0  0  0
   15.5831  -10.4789   -0.1060 C   0  0  0  0  0  0  0  0  0  0
   15.1733  -10.7323   -1.0948 H   0  0  0  0  0  0  0  0  0  0
   15.1385  -11.7342    1.0553 Cl  0  0  0  0  0  0  0  0  0  0
   17.3437  -10.3684   -0.2088 Cl  0  0  0  0  0  0  0  0  0  0
   15.3823   -8.8954    1.2547 H   0  0  0  0  0  0  0  0  0  0
   14.0137   -9.1883    0.4142 H   0  0  0  0  0  0  0  0  0  0
   15.2614   -8.4152   -0.3010 H   0  0  0  0  0  0  0  0  0  0
  1  2  1  0  0  0
  2  3  1  0  0  0
  2  4  1  0  0  0
  2  5  1  0  0  0
  1  6  1  0  0  0
  1  7  1  0  0  0
  1  8  1  0  0  0
M  END
