23
Frame 1
C 1.2158 -0.6073 -0.3730
H 0.6793 -1.5125 -0.5330
C 2.5794 -0.5745 -0.2646
H 3.1399 -1.4786 -0.3661
C 3.2075 0.6402 -0.0166
H 4.2741 0.6859 0.0669
C 2.4469 1.7894 0.1274
H 2.8993 2.7371 0.3249
C 1.0837 1.6999 0.0088
H 0.4222 2.5324 0.1106
N 0.4957 0.5203 -0.2503
C -1.0322 0.5474 -0.4150
O -1.5655 1.5318 0.0114
C -1.5239 -0.3557 -1.5080
H -1.1126 -0.0100 -2.4501
H -2.5982 -0.2590 -1.5566
H -1.2632 -1.3882 -1.3592
H -2.9195 -1.8503 0.5321
C -2.5946 -1.2228 1.3433
H -3.2201 -0.3466 1.4202
H -2.6110 -1.7851 2.2644
O -1.2130 -0.8143 1.0387
H -0.7900 -0.4794 1.8438
23
Frame 2
C 1.2187 -0.6146 -0.3647
H 0.6838 -1.5211 -0.5228
C 2.5826 -0.5786 -0.2613
H 3.1449 -1.4814 -0.3643
C 3.2087 0.6380 -0.0169
H 4.2755 0.6862 0.0625
C 2.4460 1.7854 0.1284
H 2.8969 2.7345 0.3229
C 1.0824 1.6926 0.0147
H 0.4187 2.5233 0.1168
N 0.4963 0.5114 -0.2401
C -1.0320 0.5363 -0.4015
O -1.5647 1.5251 0.0196
C -1.5196 -0.3575 -1.5053
H -1.1097 0.0015 -2.4429
H -2.5942 -0.2650 -1.5542
H -1.2540 -1.3906 -1.3691
H -2.9248 -1.8429 0.5248
C -2.6019 -1.2088 1.3315
H -3.2220 -0.3280 1.3967
H -2.6237 -1.7613 2.2582
O -1.2159 -0.8084 1.0305
H -0.7922 -0.4759 1.8365
23
Frame 3
C 1.2207 -0.6217 -0.3568
H 0.6869 -1.5293 -0.5131
C 2.5847 -0.5830 -0.2574
H 3.1485 -1.4849 -0.3612
C 3.2093 0.6351 -0.0160
H 4.2762 0.6854 0.0603
C 2.4448 1.7811 0.1298
H 2.8944 2.7313 0.3216
C 1.0809 1.6856 0.0199
H 0.4154 2.5148 0.1221
N 0.4964 0.5031 -0.2310
C -1.0323 0.5260 -0.3894
O -1.5639 1.5199 0.0259
C -1.5156 -0.3590 -1.5033
H -1.1062 0.0122 -2.4364
H -2.5905 -0.2702 -1.5533
H -1.2455 -1.3925 -1.3786
H -2.9289 -1.8349 0.5176
C -2.6077 -1.1954 1.3205
H -3.2233 -0.3111 1.3765
H -2.6325 -1.7399 2.2517
O -1.2181 -0.8011 1.0217
H -0.7936 -0.4715 1.8287
23
Frame 4
C 1.2236 -0.6295 -0.3473
H 0.6912 -1.5385 -0.5007
C 2.5879 -0.5872 -0.2543
H 3.1537 -1.4877 -0.3593
C 3.2107 0.6332 -0.0180
H 4.2779 0.6862 0.0534
C 2.4443 1.7773 0.1293
H 2.8923 2.7290 0.3175
C 1.0801 1.6781 0.0255
H 0.4123 2.5055 0.1288
N 0.4972 0.4939 -0.2199
C -1.0318 0.5151 -0.3746
O -1.5622 1.5139 0.0354
C -1.5109 -0.3597 -1.5001
H -1.1003 0.0237 -2.4275
H -2.5858 -0.2729 -1.5525
H -1.2382 -1.3940 -1.3872
H -2.9323 -1.8305 0.5103
C -2.6156 -1.1828 1.3081
H -3.2272 -0.2950 1.3500
H -2.6462 -1.7162 2.2453
O -1.2221 -0.7951 1.0146
H -0.7986 -0.4667 1.8228
23
Frame 5
C 1.2260 -0.6369 -0.3385
H 0.6949 -1.5472 -0.4896
C 2.5904 -0.5917 -0.2502
H 3.1577 -1.4912 -0.3558
C 3.2115 0.6305 -0.0181
H 4.2788 0.6858 0.0497
C 2.4433 1.7732 0.1295
H 2.8899 2.7262 0.3144
C 1.0788 1.6709 0.0303
H 0.4090 2.4966 0.1337
N 0.4975 0.4852 -0.2101
C -1.0319 0.5045 -0.3614
O -1.5609 1.5090 0.0423
C -1.5064 -0.3604 -1.4979
H -1.0954 0.0351 -2.4199
H -2.5815 -0.2763 -1.5524
H -1.2303 -1.3951 -1.3965
H -2.9364 -1.8231 0.5026
C -2.6224 -1.1702 1.2970
H -3.2298 -0.2794 1.3296
H -2.6560 -1.6959 2.2383
O -1.2254 -0.7877 1.0069
H -0.8014 -0.4617 1.8161
23
Frame 6
C 1.2283 -0.6444 -0.3296
H 0.6985 -1.5560 -0.4779
C 2.5928 -0.5965 -0.2455
H 3.1616 -1.4951 -0.3509
C 3.2123 0.6276 -0.0178
H 4.2797 0.6849 0.0468
C 2.4424 1.7689 0.1294
H 2.8877 2.7231 0.3109
C 1.0775 1.6638 0.0346
H 0.4057 2.4880 0.1375
N 0.4979 0.4766 -0.2008
C -1.0319 0.4942 -0.3487
O -1.5596 1.5045 0.0484
C -1.5021 -0.3610 -1.4959
H -1.0937 0.0483 -2.4129
H -2.5776 -0.2828 -1.5499
H -1.2192 -1.3953 -1.4075
H -2.9414 -1.8139 0.4938
C -2.6292 -1.1577 1.2859
H -3.2318 -0.2636 1.3118
H -2.6651 -1.6776 2.2301
O -1.2285 -0.7798 0.9990
H -0.8043 -0.4562 1.8093
23
Frame 7
C 1.2309 -0.6521 -0.3195
H 0.7024 -1.5650 -0.4650
C 2.5955 -0.6009 -0.2415
H 3.1660 -1.4983 -0.3477
C 3.2132 0.6253 -0.0196
H 4.2807 0.6853 0.0398
C 2.4414 1.7651 0.1279
H 2.8853 2.7210 0.3044
C 1.0762 1.6565 0.0394
H 0.4020 2.4788 0.1423
N 0.4984 0.4675 -0.1896
C -1.0318 0.4834 -0.3338
O -1.5578 1.4998 0.0567
C -1.4965 -0.3607 -1.4932
H -1.0816 0.0575 -2.4030
H -2.5715 -0.2797 -1.5545
H -1.2158 -1.3966 -1.4139
H -2.9456 -1.8070 0.4847
C -2.6372 -1.1467 1.2747
H -3.2356 -0.2498 1.2920
H -2.6763 -1.6602 2.2220
O -1.2326 -0.7727 0.9929
H -0.8095 -0.4504 1.8046
23
Frame 8
C 1.2329 -0.6594 -0.3103
H 0.7058 -1.5738 -0.4529
C 2.5975 -0.6058 -0.2366
H 3.1694 -1.5023 -0.3427
C 3.2136 0.6222 -0.0194
H 4.2812 0.6842 0.0363
C 2.4401 1.7607 0.1276
H 2.8828 2.7179 0.2997
C 1.0745 1.6494 0.0440
H 0.3983 2.4702 0.1463
N 0.4984 0.4591 -0.1801
C -1.0321 0.4729 -0.3213
O -1.5566 1.4959 0.0620
C -1.4913 -0.3609 -1.4918
H -1.0774 0.0705 -2.3959
H -2.5665 -0.2846 -1.5547
H -1.2050 -1.3963 -1.4248
H -2.9511 -1.7974 0.4761
C -2.6445 -1.1346 1.2645
H -3.2382 -0.2347 1.2760
H -2.6846 -1.6432 2.2143
O -1.2360 -0.7643 0.9854
H -0.8115 -0.4456 1.7982
23
Frame 9
C 1.2353 -0.6672 -0.3000
H 0.7093 -1.5828 -0.4401
C 2.6000 -0.6103 -0.2326
H 3.1736 -1.5056 -0.3396
C 3.2143 0.6200 -0.0215
H 4.2820 0.6847 0.0291
C 2.4390 1.7570 0.1254
H 2.8801 2.7158 0.2926
C 1.0732 1.6423 0.0479
H 0.3943 2.4610 0.1497
N 0.4989 0.4500 -0.1689
C -1.0319 0.4623 -0.3060
O -1.5548 1.4917 0.0709
C -1.4855 -0.3602 -1.4886
H -1.0600 0.0761 -2.3845
H -2.5596 -0.2760 -1.5627
H -1.2065 -1.3983 -1.4274
H -2.9544 -1.7895 0.4651
C -2.6520 -1.1247 1.2531
H -3.2418 -0.2225 1.2590
H -2.6946 -1.6297 2.2044
O -1.2399 -0.7566 0.9800
H -0.8188 -0.4374 1.7947
23
Frame 10
C 1.2374 -0.6748 -0.2905
H 0.7130 -1.5920 -0.4268
C 2.6020 -0.6155 -0.2269
H 3.1771 -1.5101 -0.3329
C 3.2148 0.6165 -0.0210
H 4.2825 0.6831 0.0264
C 2.4378 1.7524 0.1247
H 2.8777 2.7125 0.2876
C 1.0716 1.6350 0.0518
H 0.3907 2.4522 0.1527
N 0.4990 0.4415 -0.1599
C -1.0322 0.4518 -0.2939
O -1.5530 1.4883 0.0757
C -1.4803 -0.3599 -1.4877
H -1.0619 0.0938 -2.3782
H -2.5553 -0.2864 -1.5587
H -1.1894 -1.3957 -1.4423
H -2.9603 -1.7796 0.4567
C -2.6597 -1.1123 1.2430
H -3.2447 -0.2072 1.2430
H -2.7028 -1.6124 2.1967
O -1.2437 -0.7478 0.9723
H -0.8202 -0.4336 1.7881
23
Frame 11
C 1.2396 -0.6826 -0.2798
H 0.7165 -1.6012 -0.4125
C 2.6042 -0.6205 -0.2216
H 3.1807 -1.5142 -0.3271
C 3.2153 0.6136 -0.0221
H 4.2831 0.6824 0.0209
C 2.4368 1.7482 0.1224
H 2.8754 2.7098 0.2800
C 1.0703 1.6279 0.0550
H 0.3871 2.4434 0.1548
N 0.4993 0.4327 -0.1497
C -1.0322 0.4415 -0.2797
O -1.5509 1.4850 0.0831
C -1.4747 -0.3586 -1.4853
H -1.0538 0.1061 -2.3687
H -2.5495 -0.2862 -1.5607
H -1.1817 -1.3945 -1.4509
H -2.9642 -1.7712 0.4460
C -2.6675 -1.1021 1.2320
H -3.2487 -0.1948 1.2268
H -2.7118 -1.5988 2.1872
O -1.2478 -0.7392 0.9663
H -0.8256 -0.4267 1.7839
23
Frame 12
C 1.2418 -0.6903 -0.2690
H 0.7199 -1.6104 -0.3978
C 2.6063 -0.6257 -0.2161
H 3.1842 -1.5185 -0.3209
C 3.2159 0.6106 -0.0233
H 4.2837 0.6815 0.0153
C 2.4358 1.7440 0.1197
H 2.8731 2.7071 0.2718
C 1.0691 1.6209 0.0579
H 0.3834 2.4345 0.1564
N 0.4997 0.4240 -0.1395
C -1.0321 0.4312 -0.2655
O -1.5486 1.4821 0.0906
C -1.4691 -0.3570 -1.4829
H -1.0454 0.1187 -2.3589
H -2.5436 -0.2854 -1.5628
H -1.1739 -1.3929 -1.4593
H -2.9679 -1.7628 0.4347
C -2.6754 -1.0924 1.2209
H -3.2528 -0.1830 1.2110
H -2.7206 -1.5863 2.1772
O -1.2519 -0.7303 0.9604
H -0.8315 -0.4195 1.7800
23
Frame 13
C 1.2439 -0.6982 -0.2578
H 0.7233 -1.6197 -0.3825
C 2.6084 -0.6308 -0.2105
H 3.1877 -1.5229 -0.3144
C 3.2164 0.6075 -0.0248
H 4.2842 0.6805 0.0092
C 2.4348 1.7398 0.1166
H 2.8708 2.7044 0.2629
C 1.0678 1.6138 0.0606
H 0.3798 2.4256 0.1578
N 0.5001 0.4154 -0.1292
C -1.0321 0.4209 -0.2511
O -1.5462 1.4793 0.0984
C -1.4632 -0.3550 -1.4803
H -1.0366 0.1314 -2.3487
H -2.5375 -0.2841 -1.5651
H -1.1662 -1.3909 -1.4675
H -2.9712 -1.7548 0.4232
C -2.6834 -1.0830 1.2097
H -3.2573 -0.1716 1.1950
H -2.7296 -1.5742 2.1671
O -1.2561 -0.7213 0.9548
H -0.8378 -0.4121 1.7766
23
Frame 14
C 1.2461 -0.7060 -0.2468
H 0.7268 -1.6290 -0.3673
C 2.6105 -0.6360 -0.2047
H 3.1912 -1.5273 -0.3075
C 3.2168 0.6044 -0.0261
H 4.2846 0.6795 0.0037
C 2.4337 1.7356 0.1133
H 2.8683 2.7017 0.2540
C 1.0666 1.6068 0.0629
H 0.3759 2.4167 0.1584
N 0.5005 0.4067 -0.1192
C -1.0320 0.4106 -0.2367
O -1.5438 1.4766 0.1061
C -1.4574 -0.3529 -1.4777
H -1.0277 0.1440 -2.3383
H -2.5313 -0.2823 -1.5673
H -1.1587 -1.3888 -1.4756
H -2.9748 -1.7461 0.4111
C -2.6914 -1.0738 1.1985
H -3.2614 -0.1603 1.1800
H -2.7382 -1.5632 2.1565
O -1.2601 -0.7122 0.9493
H -0.8442 -0.4047 1.7734
23
Frame 15
C 1.2484 -0.7138 -0.2353
H 0.7304 -1.6383 -0.3515
C 2.6127 -0.6411 -0.1991
H 3.1949 -1.5315 -0.3013
C 3.2172 0.6014 -0.0278
H 4.2850 0.6788 -0.0030
C 2.4324 1.7314 0.1100
H 2.8656 2.6990 0.2444
C 1.0651 1.5996 0.0654
H 0.3718 2.4077 0.1591
N 0.5009 0.3979 -0.1087
C -1.0319 0.3999 -0.2221
O -1.5413 1.4737 0.1142
C -1.4510 -0.3508 -1.4751
H -1.0173 0.1563 -2.3274
H -2.5244 -0.2797 -1.5704
H -1.1512 -1.3866 -1.4833
H -2.9788 -1.7371 0.3988
C -2.6999 -1.0646 1.1874
H -3.2656 -0.1487 1.1653
H -2.7474 -1.5525 2.1459
O -1.2643 -0.7034 0.9440
H -0.8511 -0.3977 1.7706
23
Frame 16
C 1.2502 -0.7212 -0.2257
H 0.7333 -1.6469 -0.3386
C 2.6143 -0.6463 -0.1926
H 3.1979 -1.5361 -0.2927
C 3.2172 0.5981 -0.0274
H 4.2849 0.6772 -0.0045
C 2.4310 1.7272 0.1072
H 2.8628 2.6960 0.2371
C 1.0636 1.5930 0.0660
H 0.3681 2.3995 0.1571
N 0.5011 0.3898 -0.1006
C -1.0321 0.3894 -0.2089
O -1.5400 1.4705 0.1212
C -1.4458 -0.3491 -1.4730
H -1.0091 0.1676 -2.3176
H -2.5189 -0.2780 -1.5730
H -1.1449 -1.3848 -1.4912
H -2.9835 -1.7254 0.3862
C -2.7067 -1.0550 1.1770
H -3.2672 -0.1362 1.1555
H -2.7531 -1.5442 2.1347
O -1.2673 -0.6944 0.9375
H -0.8559 -0.3907 1.7662
23
Frame 17
C 1.2511 -0.7287 -0.2117
H 0.7340 -1.6552 -0.3175
C 2.6151 -0.6533 -0.1838
H 3.1988 -1.5435 -0.2793
C 3.2183 0.5927 -0.0297
H 4.2860 0.6721 -0.0107
C 2.4324 1.7224 0.0992
H 2.8643 2.6923 0.2206
C 1.0647 1.5874 0.0642
H 0.3670 2.3926 0.1516
N 0.5022 0.3830 -0.0908
C -1.0314 0.3839 -0.1927
O -1.5340 1.4743 0.1302
C -1.4427 -0.3422 -1.4668
H -1.0001 0.1816 -2.3038
H -2.5150 -0.2664 -1.5724
H -1.1445 -1.3789 -1.4940
H -2.9743 -1.7261 0.3665
C -2.7118 -1.0551 1.1613
H -3.2786 -0.1404 1.1387
H -2.7573 -1.5466 2.1177
O -1.2717 -0.6783 0.9354
H -0.8723 -0.3679 1.7680
23
Frame 18
C 1.2525 -0.7363 -0.1982
H 0.7364 -1.6642 -0.2980
C 2.6165 -0.6590 -0.1771
H 3.2010 -1.5488 -0.2715
C 3.2185 0.5888 -0.0322
H 4.2862 0.6698 -0.0193
C 2.4316 1.7178 0.0943
H 2.8627 2.6890 0.2080
C 1.0637 1.5807 0.0662
H 0.3641 2.3847 0.1516
N 0.5023 0.3751 -0.0797
C -1.0316 0.3741 -0.1774
O -1.5313 1.4726 0.1397
C -1.4359 -0.3377 -1.4639
H -0.9928 0.1991 -2.2920
H -2.5081 -0.2650 -1.5731
H -1.1328 -1.3729 -1.5041
H -2.9743 -1.7233 0.3555
C -2.7202 -1.0481 1.1493
H -3.2850 -0.1326 1.1171
H -2.7672 -1.5340 2.1082
O -1.2760 -0.6689 0.9303
H -0.8805 -0.3611 1.7665
23
Frame 19
C 1.2535 -0.7437 -0.1826
H 0.7379 -1.6730 -0.2740
C 2.6174 -0.6656 -0.1686
H 3.2022 -1.5556 -0.2593
C 3.2193 0.5837 -0.0354
H 4.2870 0.6655 -0.0281
C 2.4322 1.7129 0.0863
H 2.8631 2.6852 0.1908
C 1.0639 1.5748 0.0654
H 0.3624 2.3776 0.1474
N 0.5029 0.3680 -0.0689
C -1.0313 0.3666 -0.1613
O -1.5266 1.4739 0.1503
C -1.4303 -0.3307 -1.4594
H -0.9873 0.2187 -2.2790
H -2.5024 -0.2608 -1.5715
H -1.1223 -1.3643 -1.5127
H -2.9701 -1.7217 0.3383
C -2.7278 -1.0459 1.1350
H -3.2944 -0.1318 1.0990
H -2.7748 -1.5317 2.0937
O -1.2804 -0.6560 0.9270
H -0.8944 -0.3459 1.7675
23
Frame 20
C 1.2545 -0.7507 -0.1698
H 0.7392 -1.6809 -0.2558
C 2.6183 -0.6713 -0.1613
H 3.2037 -1.5611 -0.2500
C 3.2194 0.5795 -0.0375
H 4.2870 0.6624 -0.0350
C 2.4317 1.7085 0.0807
H 2.8620 2.6818 0.1776
C 1.0633 1.5688 0.0661
H 0.3600 2.3703 0.1458
N 0.5032 0.3610 -0.0588
C -1.0313 0.3582 -0.1460
O -1.5235 1.4738 0.1591
C -1.4251 -0.3258 -1.4550
H -0.9740 0.2297 -2.2656
H -2.4961 -0.2499 -1.5747
H -1.1211 -1.3605 -1.5163
H -2.9662 -1.7198 0.3242
C -2.7338 -1.0415 1.1216
H -3.3009 -0.1282 1.0800
H -2.7813 -1.5251 2.0812
O -1.2839 -0.6445 0.9226
H -0.9051 -0.3345 1.7670
23
Frame 21
C 1.2546 -0.7574 -0.1550
H 0.7390 -1.6883 -0.2324
C 2.6183 -0.6784 -0.1520
H 3.2034 -1.5690 -0.2350
C 3.2200 0.5735 -0.0403
H 4.2877 0.6561 -0.0415
C 2.4329 1.7033 0.0714
H 2.8636 2.6773 0.1596
C 1.0642 1.5637 0.0633
H 0.3594 2.3644 0.1399
N 0.5039 0.3552 -0.0495
C -1.0310 0.3529 -0.1301
O -1.5181 1.4771 0.1707
C -1.4218 -0.3174 -1.4490
H -0.9646 0.2451 -2.2510
H -2.4918 -0.2365 -1.5743
H -1.1203 -1.3526 -1.5200
H -2.9548 -1.7235 0.3058
C -2.7382 -1.0432 1.1057
H -3.3119 -0.1343 1.0600
H -2.7848 -1.5268 2.0652
O -1.2874 -0.6287 0.9198
H -0.9224 -0.3128 1.7688
23
Frame 22
C 1.2551 -0.7642 -0.1407
H 0.7395 -1.6959 -0.2106
C 2.6187 -0.6849 -0.1432
H 3.2039 -1.5757 -0.2222
C 3.2203 0.5683 -0.0426
H 4.2880 0.6512 -0.0482
C 2.4333 1.6984 0.0636
H 2.8638 2.6731 0.1430
C 1.0644 1.5581 0.0618
H 0.3579 2.3579 0.1346
N 0.5043 0.3489 -0.0397
C -1.0309 0.3460 -0.1144
O -1.5134 1.4785 0.1817
C -1.4174 -0.3100 -1.4438
H -0.9546 0.2600 -2.2367
H -2.4865 -0.2249 -1.5746
H -1.1178 -1.3455 -1.5246
H -2.9471 -1.7246 0.2896
C -2.7435 -1.0422 1.0908
H -3.3203 -0.1356 1.0396
H -2.7901 -1.5240 2.0510
O -1.2910 -0.6154 0.9160
H -0.9366 -0.2976 1.7696
23
Frame 23
C 1.2555 -0.7707 -0.1277
H 0.7402 -1.7031 -0.1917
C 2.6190 -0.6909 -0.1354
H 3.2045 -1.5818 -0.2119
C 3.2202 0.5633 -0.0442
H 4.2878 0.6468 -0.0545
C 2.4329 1.6934 0.0581
H 2.8631 2.6689 0.1299
C 1.0639 1.5524 0.0620
H 0.3564 2.3515 0.1321
N 0.5042 0.3425 -0.0302
C -1.0312 0.3375 -0.0991
O -1.5106 1.4783 0.1901
C -1.4122 -0.3041 -1.4396
H -0.9486 0.2767 -2.2239
H -2.4811 -0.2203 -1.5735
H -1.1094 -1.3381 -1.5321
H -2.9417 -1.7254 0.2781
C -2.7491 -1.0377 1.0774
H -3.3257 -0.1319 1.0157
H -2.7975 -1.5134 2.0403
O -1.2939 -0.6046 0.9110
H -0.9466 -0.2894 1.7692
23
Frame 24
C 1.2519 -0.7761 -0.1067
H 0.7336 -1.7079 -0.1567
C 2.6155 -0.7010 -0.1219
H 3.1979 -1.5946 -0.1895
C 3.2210 0.5525 -0.0492
H 4.2888 0.6323 -0.0648
C 2.4377 1.6860 0.0425
H 2.8713 2.6610 0.1009
C 1.0681 1.5493 0.0548
H 0.3611 2.3497 0.1195
N 0.5045 0.3405 -0.0198
C -1.0313 0.3402 -0.0804
O -1.5006 1.4913 0.2043
C -1.4116 -0.2870 -1.4299
H -0.9421 0.3003 -2.2055
H -2.4794 -0.1967 -1.5681
H -1.1120 -1.3213 -1.5331
H -2.9069 -1.7469 0.2538
C -2.7472 -1.0542 1.0557
H -3.3471 -0.1642 0.9860
H -2.7933 -1.5297 2.0188
O -1.2990 -0.5783 0.9127
H -0.9809 -0.2452 1.7766
23
Frame 25
C 1.2521 -0.7825 -0.0929
H 0.7341 -1.7149 -0.1365
C 2.6155 -0.7070 -0.1135
H 3.1982 -1.6007 -0.1786
C 3.2208 0.5473 -0.0508
H 4.2885 0.6275 -0.0717
C 2.4374 1.6808 0.0366
H 2.8707 2.6564 0.0863
C 1.0677 1.5436 0.0546
H 0.3593 2.3430 0.1156
N 0.5045 0.3344 -0.0102
C -1.0315 0.3325 -0.0653
O -1.4966 1.4922 0.2128
C -1.4065 -0.2804 -1.4252
H -0.9343 0.3159 -2.1920
H -2.4738 -0.1891 -1.5673
H -1.1058 -1.3136 -1.5389
H -2.9002 -1.7472 0.2404
C -2.7519 -1.0514 1.0417
H -3.3529 -0.1629 0.9641
H -2.7990 -1.5229 2.0065
O -1.3024 -0.5664 0.9077
H -0.9936 -0.2346 1.7764
