22
Frame 1
C 1.1751 -0.7946 0.0769
H 0.6223 -1.7023 0.1349
C 2.5459 -0.7332 0.1013
H 3.1190 -1.6341 0.1503
C 3.1601 0.5119 0.0786
H 4.2289 0.5832 0.0990
C 2.3862 1.6565 0.0442
H 2.8292 2.6291 0.0456
C 1.0156 1.5264 0.0206
H 0.2937 2.3167 0.0284
N 0.4526 0.3240 0.0094
C -1.0837 0.3183 -0.0376
O -1.5459 1.4764 0.2615
C -1.4697 -0.1981 -1.4412
H -1.1003 0.4970 -2.1840
H -2.5485 -0.2064 -1.5061
H -1.0911 -1.1919 -1.6463
H -3.0688 -1.7102 0.3616
C -2.6678 -1.0901 1.1554
H -3.2501 -0.1827 1.2351
H -2.7131 -1.6349 2.0875
O -1.2896 -0.7610 0.9249
22
Frame 2
C 1.1841 -0.8093 0.0689
H 0.6285 -1.7153 0.1333
C 2.5561 -0.7521 0.0924
H 3.1273 -1.6540 0.1485
C 3.1734 0.4911 0.0594
H 4.2423 0.5598 0.0788
C 2.4026 1.6379 0.0162
H 2.8489 2.6092 0.0099
C 1.0312 1.5103 -0.0053
H 0.3157 2.3064 -0.0018
N 0.4667 0.3102 -0.0065
C -1.1115 0.3144 -0.0484
O -1.5531 1.4712 0.2577
C -1.4842 -0.2015 -1.4519
H -1.1264 0.5009 -2.1930
H -2.5632 -0.2306 -1.5189
H -1.0885 -1.1881 -1.6558
H -3.1478 -1.6361 0.4312
C -2.6810 -1.0437 1.2102
H -3.2202 -0.1147 1.3302
H -2.6973 -1.5999 2.1363
O -1.3038 -0.7663 0.9083
22
Frame 3
C 1.1927 -0.8235 0.0608
H 0.6350 -1.7283 0.1312
C 2.5658 -0.7706 0.0835
H 3.1350 -1.6733 0.1460
C 3.1858 0.4706 0.0400
H 4.2549 0.5369 0.0580
C 2.4178 1.6194 -0.0116
H 2.8671 2.5893 -0.0262
C 1.0456 1.4942 -0.0310
H 0.3362 2.2956 -0.0326
N 0.4793 0.2964 -0.0226
C -1.1408 0.3110 -0.0598
O -1.5619 1.4667 0.2516
C -1.4997 -0.2051 -1.4630
H -1.1548 0.5051 -2.2025
H -2.5784 -0.2572 -1.5322
H -1.0846 -1.1832 -1.6657
H -3.2227 -1.5572 0.5054
C -2.6906 -0.9977 1.2666
H -3.1835 -0.0500 1.4293
H -2.6772 -1.5691 2.1833
O -1.3209 -0.7700 0.8914
22
Frame 4
C 1.2000 -0.8376 0.0528
H 0.6410 -1.7415 0.1298
C 2.5742 -0.7881 0.0759
H 3.1418 -1.6914 0.1469
C 3.1968 0.4511 0.0216
H 4.2661 0.5155 0.0400
C 2.4313 1.6013 -0.0414
H 2.8832 2.5698 -0.0646
C 1.0584 1.4778 -0.0605
H 0.3554 2.2846 -0.0701
N 0.4896 0.2823 -0.0402
C -1.1723 0.3079 -0.0711
O -1.5706 1.4626 0.2471
C -1.5168 -0.2066 -1.4746
H -1.1760 0.5072 -2.2122
H -2.5951 -0.2715 -1.5484
H -1.0916 -1.1805 -1.6735
H -3.2907 -1.4768 0.5841
C -2.6949 -0.9547 1.3246
H -3.1388 0.0079 1.5317
H -2.6515 -1.5458 2.2275
O -1.3397 -0.7734 0.8745
22
Frame 5
C 1.2068 -0.8511 0.0450
H 0.6467 -1.7543 0.1285
C 2.5819 -0.8054 0.0681
H 3.1477 -1.7093 0.1469
C 3.2073 0.4317 0.0027
H 4.2768 0.4940 0.0206
C 2.4442 1.5830 -0.0709
H 2.8984 2.5503 -0.1031
C 1.0705 1.4614 -0.0891
H 0.3740 2.2738 -0.1061
N 0.4986 0.2684 -0.0576
C -1.2050 0.3051 -0.0824
O -1.5813 1.4586 0.2415
C -1.5352 -0.2074 -1.4864
H -1.2014 0.5118 -2.2214
H -2.6128 -0.2883 -1.5639
H -1.0968 -1.1751 -1.6830
H -3.3515 -1.3998 0.6697
C -2.6956 -0.9129 1.3829
H -3.0896 0.0621 1.6280
H -2.6227 -1.5204 2.2726
O -1.3612 -0.7762 0.8572
22
Frame 6
C 1.2128 -0.8642 0.0370
H 0.6520 -1.7667 0.1272
C 2.5888 -0.8220 0.0606
H 3.1527 -1.7264 0.1477
C 3.2169 0.4128 -0.0159
H 4.2865 0.4732 0.0020
C 2.4559 1.5649 -0.1007
H 2.9125 2.5309 -0.1419
C 1.0817 1.4452 -0.1183
H 0.3917 2.2629 -0.1435
N 0.5061 0.2547 -0.0755
C -1.2391 0.3025 -0.0934
O -1.5933 1.4548 0.2363
C -1.5553 -0.2068 -1.4981
H -1.2256 0.5169 -2.2302
H -2.6321 -0.3003 -1.5804
H -1.1063 -1.1694 -1.6924
H -3.4040 -1.3273 0.7612
C -2.6919 -0.8735 1.4415
H -3.0357 0.1114 1.7189
H -2.5892 -1.4952 2.3181
O -1.3850 -0.7786 0.8397
22
Frame 7
C 1.2181 -0.8768 0.0282
H 0.6566 -1.7787 0.1245
C 2.5948 -0.8381 0.0527
H 3.1569 -1.7429 0.1476
C 3.2257 0.3944 -0.0342
H 4.2954 0.4530 -0.0165
C 2.4667 1.5472 -0.1297
H 2.9253 2.5119 -0.1795
C 1.0920 1.4292 -0.1468
H 0.4085 2.2520 -0.1796
N 0.5123 0.2412 -0.0936
C -1.2744 0.3000 -0.1041
O -1.6068 1.4510 0.2311
C -1.5772 -0.2051 -1.5099
H -1.2470 0.5216 -2.2384
H -2.6533 -0.3059 -1.5987
H -1.1218 -1.1646 -1.7011
H -3.4470 -1.2645 0.8600
C -2.6838 -0.8362 1.4999
H -2.9810 0.1572 1.7992
H -2.5491 -1.4653 2.3667
O -1.4110 -0.7809 0.8223
22
Frame 8
C 1.2223 -0.8886 0.0197
H 0.6604 -1.7900 0.1222
C 2.5998 -0.8532 0.0456
H 3.1599 -1.7585 0.1490
C 3.2334 0.3768 -0.0517
H 4.3032 0.4336 -0.0333
C 2.4763 1.5299 -0.1589
H 2.9369 2.4933 -0.2175
C 1.1010 1.4137 -0.1766
H 0.4240 2.2413 -0.2188
N 0.5170 0.2282 -0.1124
C -1.3112 0.2977 -0.1143
O -1.6211 1.4477 0.2266
C -1.6007 -0.2024 -1.5212
H -1.2679 0.5265 -2.2460
H -2.6761 -0.3081 -1.6168
H -1.1408 -1.1600 -1.7093
H -3.4824 -1.2026 0.9610
C -2.6711 -0.8015 1.5577
H -2.9195 0.1986 1.8777
H -2.5047 -1.4398 2.4120
O -1.4388 -0.7826 0.8052
22
Frame 9
C 1.2257 -0.8997 0.0106
H 0.6635 -1.8007 0.1189
C 2.6037 -0.8676 0.0387
H 3.1619 -1.7732 0.1506
C 3.2401 0.3599 -0.0683
H 4.3100 0.4150 -0.0486
C 2.4849 1.5132 -0.1873
H 2.9474 2.4753 -0.2541
C 1.1091 1.3988 -0.2064
H 0.4382 2.2308 -0.2582
N 0.5205 0.2158 -0.1317
C -1.3491 0.2954 -0.1241
O -1.6363 1.4446 0.2221
C -1.6259 -0.1996 -1.5321
H -1.2892 0.5310 -2.2530
H -2.7007 -0.3081 -1.6346
H -1.1632 -1.1559 -1.7170
H -3.5095 -1.1439 1.0649
C -2.6540 -0.7688 1.6146
H -2.8534 0.2366 1.9509
H -2.4554 -1.4152 2.4554
O -1.4684 -0.7838 0.7886
22
Frame 10
C 1.2283 -0.9102 -0.0001
H 0.6658 -1.8108 0.1126
C 2.6068 -0.8814 0.0309
H 3.1629 -1.7873 0.1502
C 3.2458 0.3437 -0.0839
H 4.3158 0.3971 -0.0624
C 2.4925 1.4973 -0.2134
H 2.9569 2.4580 -0.2867
C 1.1162 1.3847 -0.2345
H 0.4512 2.2208 -0.2951
N 0.5231 0.2042 -0.1514
C -1.3879 0.2931 -0.1336
O -1.6526 1.4419 0.2165
C -1.6530 -0.1978 -1.5423
H -1.3139 0.5349 -2.2596
H -2.7270 -0.3104 -1.6508
H -1.1860 -1.1521 -1.7245
H -3.5281 -1.0881 1.1714
C -2.6325 -0.7368 1.6700
H -2.7839 0.2731 2.0170
H -2.4008 -1.3894 2.4973
O -1.4997 -0.7842 0.7726
22
Frame 11
C 1.2302 -0.9201 -0.0111
H 0.6676 -1.8206 0.1053
C 2.6091 -0.8940 0.0231
H 3.1634 -1.8003 0.1495
C 3.2506 0.3288 -0.0987
H 4.3207 0.3808 -0.0751
C 2.4989 1.4823 -0.2383
H 2.9650 2.4419 -0.3179
C 1.1224 1.3713 -0.2619
H 0.4626 2.2108 -0.3314
N 0.5247 0.1930 -0.1710
C -1.4275 0.2908 -0.1425
O -1.6697 1.4394 0.2114
C -1.6816 -0.1963 -1.5517
H -1.3367 0.5367 -2.2656
H -2.7551 -0.3091 -1.6672
H -1.2140 -1.1507 -1.7303
H -3.5389 -1.0329 1.2784
C -2.6068 -0.7067 1.7236
H -2.7096 0.3063 2.0790
H -2.3430 -1.3668 2.5349
O -1.5324 -0.7844 0.7578
22
Frame 12
C 1.2315 -0.9293 -0.0229
H 0.6689 -1.8298 0.0959
C 2.6107 -0.9060 0.0144
H 3.1632 -1.8126 0.1466
C 3.2545 0.3147 -0.1126
H 4.3246 0.3653 -0.0869
C 2.5043 1.4683 -0.2607
H 2.9719 2.4268 -0.3451
C 1.1273 1.3589 -0.2873
H 0.4723 2.2014 -0.3648
N 0.5256 0.1826 -0.1900
C -1.4679 0.2883 -0.1511
O -1.6878 1.4371 0.2054
C -1.7117 -0.1967 -1.5603
H -1.3668 0.5388 -2.2714
H -2.7841 -0.3153 -1.6804
H -1.2382 -1.1482 -1.7366
H -3.5428 -0.9728 1.3842
C -2.5771 -0.6767 1.7747
H -2.6272 0.3374 2.1378
H -2.2848 -1.3479 2.5667
O -1.5663 -0.7840 0.7442
22
Frame 13
C 1.2327 -0.9382 -0.0358
H 0.6708 -1.8393 0.0843
C 2.6122 -0.9162 0.0047
H 3.1637 -1.8228 0.1415
C 3.2574 0.3032 -0.1261
H 4.3275 0.3534 -0.0986
C 2.5078 1.4563 -0.2812
H 2.9762 2.4142 -0.3695
C 1.1308 1.3473 -0.3101
H 0.4796 2.1921 -0.3944
N 0.5259 0.1725 -0.2081
C -1.5089 0.2851 -0.1588
O -1.7075 1.4344 0.1989
C -1.7431 -0.1990 -1.5677
H -1.3858 0.5325 -2.2763
H -2.8152 -0.3109 -1.6969
H -1.2749 -1.1544 -1.7369
H -3.5399 -0.9071 1.4885
C -2.5435 -0.6479 1.8235
H -2.5368 0.3643 2.1947
H -2.2277 -1.3356 2.5918
O -1.6012 -0.7838 0.7324
22
Frame 14
C 1.2337 -0.9468 -0.0490
H 0.6727 -1.8487 0.0713
C 2.6133 -0.9258 -0.0049
H 3.1640 -1.8323 0.1357
C 3.2595 0.2926 -0.1382
H 4.3295 0.3426 -0.1082
C 2.5102 1.4453 -0.2992
H 2.9791 2.4027 -0.3901
C 1.1331 1.3364 -0.3312
H 0.4849 2.1828 -0.4215
N 0.5256 0.1626 -0.2259
C -1.5504 0.2815 -0.1664
O -1.7284 1.4316 0.1915
C -1.7759 -0.2036 -1.5745
H -1.4256 0.5321 -2.2820
H -2.8465 -0.3284 -1.7055
H -1.2958 -1.1530 -1.7420
H -3.5315 -0.8211 1.5883
C -2.5060 -0.6181 1.8691
H -2.4273 0.3856 2.2543
H -2.1812 -1.3347 2.6063
O -1.6369 -0.7830 0.7221
22
Frame 15
C 1.2388 -0.9499 -0.0567
H 0.6822 -1.8548 0.0616
C 2.6182 -0.9228 -0.0077
H 3.1724 -1.8268 0.1351
C 3.2595 0.2984 -0.1391
H 4.3291 0.3532 -0.1054
C 2.5055 1.4475 -0.3033
H 2.9704 2.4070 -0.3931
C 1.1291 1.3323 -0.3399
H 0.4781 2.1763 -0.4327
N 0.5258 0.1560 -0.2360
C -1.5641 0.2730 -0.1710
O -1.7381 1.4243 0.1830
C -1.7899 -0.2184 -1.5763
H -1.4391 0.5138 -2.2871
H -2.8605 -0.3436 -1.7066
H -1.3101 -1.1687 -1.7393
H -3.5161 -0.6704 1.6119
C -2.4885 -0.6015 1.8847
H -2.3068 0.3445 2.3309
H -2.2488 -1.3837 2.5654
O -1.6471 -0.7855 0.7216
22
Frame 16
C 1.2440 -0.9529 -0.0645
H 0.6917 -1.8609 0.0518
C 2.6231 -0.9198 -0.0105
H 3.1809 -1.8214 0.1344
C 3.2594 0.3042 -0.1400
H 4.3287 0.3639 -0.1026
C 2.5009 1.4497 -0.3073
H 2.9617 2.4112 -0.3961
C 1.1250 1.3283 -0.3485
H 0.4712 2.1698 -0.4440
N 0.5261 0.1495 -0.2462
C -1.5777 0.2646 -0.1757
O -1.7477 1.4169 0.1746
C -1.8040 -0.2331 -1.5782
H -1.4526 0.4955 -2.2923
H -2.8745 -0.3589 -1.7076
H -1.3245 -1.1845 -1.7365
H -3.5008 -0.5197 1.6355
C -2.4710 -0.5849 1.9004
H -2.1864 0.3034 2.4076
H -2.3164 -1.4328 2.5246
O -1.6572 -0.7881 0.7210
22
Frame 17
C 1.2491 -0.9560 -0.0722
H 0.7012 -1.8670 0.0421
C 2.6280 -0.9168 -0.0133
H 3.1893 -1.8159 0.1338
C 3.2594 0.3100 -0.1409
H 4.3283 0.3745 -0.0998
C 2.4962 1.4519 -0.3114
H 2.9530 2.4155 -0.3991
C 1.1210 1.3242 -0.3572
H 0.4644 2.1633 -0.4552
N 0.5263 0.1429 -0.2563
C -1.5914 0.2561 -0.1803
O -1.7574 1.4096 0.1661
C -1.8180 -0.2479 -1.5800
H -1.4661 0.4772 -2.2974
H -2.8885 -0.3741 -1.7087
H -1.3388 -1.2002 -1.7338
H -3.4854 -0.3690 1.6591
C -2.4535 -0.5683 1.9160
H -2.0659 0.2623 2.4842
H -2.3840 -1.4818 2.4837
O -1.6674 -0.7906 0.7205
22
Frame 18
C 1.2568 -0.9652 -0.0903
H 0.7161 -1.8813 0.0194
C 2.6355 -0.9182 -0.0304
H 3.2021 -1.8145 0.1138
C 3.2597 0.3125 -0.1540
H 4.3282 0.3834 -0.1122
C 2.4894 1.4500 -0.3218
H 2.9402 2.4167 -0.4071
C 1.1149 1.3141 -0.3684
H 0.4551 2.1506 -0.4661
N 0.5257 0.1292 -0.2704
C -1.6335 0.2437 -0.1876
O -1.7838 1.4001 0.1514
C -1.8518 -0.2707 -1.5833
H -1.4956 0.4488 -2.3039
H -2.9214 -0.3995 -1.7172
H -1.3704 -1.2235 -1.7259
H -3.4001 -0.1451 1.7566
C -2.4108 -0.5325 1.9565
H -1.8746 0.1778 2.5667
H -2.4757 -1.4852 2.4560
O -1.7060 -0.7914 0.7182
22
Frame 19
C 1.2623 -0.9772 -0.1163
H 0.7283 -1.8988 -0.0191
C 2.6407 -0.9234 -0.0516
H 3.2117 -1.8181 0.0849
C 3.2585 0.3117 -0.1611
H 4.3265 0.3883 -0.1156
C 2.4819 1.4462 -0.3205
H 2.9276 2.4161 -0.3958
C 1.1083 1.3031 -0.3726
H 0.4455 2.1375 -0.4659
N 0.5241 0.1142 -0.2868
C -1.6764 0.2349 -0.1957
O -1.8057 1.3951 0.1351
C -1.8900 -0.2898 -1.5870
H -1.5278 0.4230 -2.3112
H -2.9589 -0.4180 -1.7257
H -1.4093 -1.2446 -1.7184
H -3.3107 0.0017 1.8503
C -2.3622 -0.4958 1.9927
H -1.7251 0.1343 2.5945
H -2.5044 -1.4514 2.4700
O -1.7453 -0.7889 0.7156
22
Frame 20
C 1.2738 -0.9986 -0.1641
H 0.7518 -1.9301 -0.0973
C 2.6514 -0.9332 -0.0922
H 3.2308 -1.8259 0.0208
C 3.2572 0.3105 -0.1642
H 4.3241 0.3966 -0.1123
C 2.4692 1.4405 -0.2956
H 2.9050 2.4167 -0.3430
C 1.0971 1.2853 -0.3569
H 0.4273 2.1157 -0.4313
N 0.5231 0.0889 -0.3054
C -1.7178 0.2272 -0.2049
O -1.8179 1.3937 0.1108
C -1.9296 -0.3149 -1.5886
H -1.5578 0.3850 -2.3203
H -2.9984 -0.4387 -1.7317
H -1.4538 -1.2743 -1.7024
H -3.2401 0.1072 1.9321
C -2.3149 -0.4425 2.0257
H -1.6087 0.1555 2.5817
H -2.4815 -1.3850 2.5206
O -1.7904 -0.7793 0.7184
22
Frame 21
C 1.2865 -1.0198 -0.2042
H 0.7772 -1.9600 -0.1641
C 2.6635 -0.9420 -0.1325
H 3.2523 -1.8314 -0.0449
C 3.2562 0.3093 -0.1724
H 4.3223 0.4054 -0.1201
C 2.4557 1.4336 -0.2735
H 2.8809 2.4154 -0.2972
C 1.0852 1.2656 -0.3366
H 0.4076 2.0910 -0.3909
N 0.5222 0.0624 -0.3141
C -1.7591 0.2226 -0.2111
O -1.8299 1.3944 0.0904
C -1.9665 -0.3349 -1.5883
H -1.5836 0.3529 -2.3256
H -3.0348 -0.4541 -1.7385
H -1.4956 -1.2987 -1.6849
H -3.1708 0.2013 2.0054
C -2.2710 -0.3941 2.0532
H -1.5040 0.1722 2.5598
H -2.4552 -1.3227 2.5676
O -1.8391 -0.7685 0.7226
22
Frame 22
C 1.2981 -1.0388 -0.2417
H 0.8007 -1.9862 -0.2275
C 2.6746 -0.9495 -0.1727
H 3.2722 -1.8352 -0.1117
C 3.2550 0.3081 -0.1813
H 4.3203 0.4134 -0.1302
C 2.4428 1.4262 -0.2506
H 2.8579 2.4125 -0.2511
C 1.0736 1.2466 -0.3135
H 0.3888 2.0668 -0.3470
N 0.5210 0.0377 -0.3189
C -1.8007 0.2195 -0.2157
O -1.8429 1.3956 0.0720
C -2.0027 -0.3530 -1.5868
H -1.6095 0.3236 -2.3288
H -3.0702 -0.4691 -1.7447
H -1.5356 -1.3201 -1.6664
H -3.0999 0.2855 2.0717
C -2.2268 -0.3497 2.0760
H -1.4063 0.1864 2.5290
H -2.4215 -1.2637 2.6119
O -1.8888 -0.7567 0.7280
22
Frame 23
C 1.3080 -1.0557 -0.2706
H 0.8212 -2.0088 -0.2767
C 2.6839 -0.9555 -0.2060
H 3.2896 -1.8370 -0.1675
C 3.2532 0.3071 -0.1902
H 4.3177 0.4209 -0.1417
C 2.4303 1.4185 -0.2328
H 2.8364 2.4085 -0.2154
C 1.0625 1.2281 -0.2936
H 0.3712 2.0431 -0.3097
N 0.5194 0.0145 -0.3204
C -1.8424 0.2198 -0.2186
O -1.8565 1.3987 0.0584
C -2.0392 -0.3643 -1.5850
H -1.6384 0.3045 -2.3300
H -3.1056 -0.4802 -1.7500
H -1.5729 -1.3329 -1.6509
H -3.0251 0.3570 2.1341
C -2.1808 -0.3147 2.0939
H -1.3125 0.1890 2.4919
H -2.3816 -1.2161 2.6483
O -1.9384 -0.7445 0.7325
22
Frame 24
C 1.3161 -1.0702 -0.2914
H 0.8383 -2.0278 -0.3123
C 2.6916 -0.9602 -0.2334
H 3.3044 -1.8375 -0.2137
C 3.2511 0.3063 -0.1999
H 4.3150 0.4279 -0.1559
C 2.4191 1.4114 -0.2201
H 2.8173 2.4043 -0.1898
C 1.0524 1.2112 -0.2761
H 0.3555 2.0214 -0.2779
N 0.5176 -0.0062 -0.3179
C -1.8841 0.2230 -0.2197
O -1.8709 1.4033 0.0493
C -2.0750 -0.3697 -1.5828
H -1.6698 0.2947 -2.3292
H -3.1399 -0.4892 -1.7544
H -1.6060 -1.3377 -1.6381
H -2.9470 0.4167 2.1927
C -2.1346 -0.2890 2.1073
H -1.2241 0.1796 2.4498
H -2.3389 -1.1799 2.6771
O -1.9882 -0.7323 0.7366
22
Frame 25
C 1.3234 -1.0835 -0.3009
H 0.8537 -2.0450 -0.3277
C 2.6986 -0.9640 -0.2536
H 3.3178 -1.8369 -0.2477
C 3.2492 0.3061 -0.2129
H 4.3125 0.4352 -0.1767
C 2.4087 1.4050 -0.2161
H 2.7998 2.4006 -0.1807
C 1.0431 1.1955 -0.2623
H 0.3411 2.0009 -0.2529
N 0.5159 -0.0256 -0.3098
C -1.9254 0.2300 -0.2183
O -1.8859 1.4101 0.0469
C -2.1083 -0.3667 -1.5805
H -1.7040 0.2989 -2.3262
H -3.1711 -0.4959 -1.7578
H -1.6307 -1.3308 -1.6296
H -2.8678 0.4629 2.2476
C -2.0906 -0.2746 2.1167
H -1.1433 0.1557 2.4057
H -2.2980 -1.1580 2.6970
O -2.0387 -0.7199 0.7399
22
Frame 26
C 1.3305 -1.0958 -0.3004
H 0.8681 -2.0608 -0.3269
C 2.7054 -0.9668 -0.2689
H 3.3305 -1.8355 -0.2741
C 3.2477 0.3067 -0.2295
H 4.3104 0.4431 -0.2053
C 2.3995 1.3996 -0.2191
H 2.7839 2.3979 -0.1851
C 1.0349 1.1810 -0.2501
H 0.3282 1.9820 -0.2318
N 0.5149 -0.0438 -0.2948
C -1.9658 0.2406 -0.2146
O -1.9001 1.4193 0.0494
C -2.1386 -0.3571 -1.5777
H -1.7416 0.3155 -2.3212
H -3.1982 -0.5040 -1.7593
H -1.6447 -1.3130 -1.6246
H -2.7884 0.4982 2.2997
C -2.0510 -0.2698 2.1229
H -1.0716 0.1177 2.3602
H -2.2635 -1.1482 2.7087
O -2.0908 -0.7066 0.7428
22
Frame 27
C 1.3380 -1.1072 -0.2898
H 0.8824 -2.0757 -0.3086
C 2.7123 -0.9691 -0.2796
H 3.3431 -1.8336 -0.2934
C 3.2468 0.3081 -0.2504
H 4.3089 0.4516 -0.2426
C 2.3916 1.3952 -0.2291
H 2.7696 2.3961 -0.2030
C 1.0282 1.1676 -0.2391
H 0.3172 1.9644 -0.2130
N 0.5149 -0.0609 -0.2732
C -2.0045 0.2548 -0.2092
O -1.9119 1.4308 0.0567
C -2.1655 -0.3404 -1.5750
H -1.7867 0.3459 -2.3155
H -3.2204 -0.5173 -1.7571
H -1.6446 -1.2818 -1.6246
H -2.7109 0.5212 2.3492
C -2.0168 -0.2745 2.1258
H -1.0103 0.0676 2.3138
H -2.2361 -1.1506 2.7125
O -2.1453 -0.6920 0.7451
