15
Frame 1
C -1.6277 -0.4891 1.2692
C -0.8205 -0.7077 0.0124
C 0.4672 -0.9943 -0.0168
H -1.3649 -0.6291 -0.9136
H 1.0123 -1.0778 0.9080
C 1.2654 -1.2442 -1.2736
H -1.0099 -0.5832 2.1541
H -2.4321 -1.2156 1.3363
H -2.0808 0.4980 1.2732
H 2.1010 -0.5557 -1.3342
H 0.6525 -1.1199 -2.1587
H 1.6657 -2.2539 -1.2755
Cl 0.4388 2.5227 1.4428
C 1.0767 1.9812 -0.0855
Cl 0.0671 2.5603 -1.3853
15
Frame 2
C -1.6236 -0.4740 1.2699
C -0.8169 -0.6911 0.0127
C 0.4704 -0.9804 -0.0174
H -1.3611 -0.6098 -0.9129
H 1.0156 -1.0665 0.9070
C 1.2675 -1.2308 -1.2749
H -1.0060 -0.5704 2.1547
H -2.4288 -1.1999 1.3353
H -2.0755 0.5135 1.2756
H 2.1072 -0.5472 -1.3332
H 0.6556 -1.0999 -2.1596
H 1.6613 -2.2428 -1.2802
Cl 0.4362 2.5138 1.4432
C 1.0727 1.9675 -0.0844
Cl 0.0659 2.5503 -1.3858
15
Frame 3
C -1.6197 -0.4591 1.2704
C -0.8132 -0.6747 0.0130
C 0.4738 -0.9662 -0.0180
H -1.3573 -0.5902 -0.9126
H 1.0189 -1.0558 0.9062
C 1.2694 -1.2172 -1.2761
H -1.0023 -0.5579 2.1550
H -2.4255 -1.1843 1.3343
H -2.0709 0.5289 1.2782
H 2.1137 -0.5391 -1.3311
H 0.6587 -1.0789 -2.1606
H 1.6563 -2.2319 -1.2846
Cl 0.4337 2.5049 1.4437
C 1.0687 1.9536 -0.0833
Cl 0.0646 2.5404 -1.3862
15
Frame 4
C -1.6159 -0.4439 1.2711
C -0.8095 -0.6575 0.0133
C 0.4772 -0.9515 -0.0184
H -1.3532 -0.5702 -0.9120
H 1.0222 -1.0438 0.9054
C 1.2717 -1.2028 -1.2772
H -0.9989 -0.5450 2.1557
H -2.4222 -1.1688 1.3329
H -2.0662 0.5442 1.2806
H 2.1209 -0.5309 -1.3291
H 0.6626 -1.0563 -2.1613
H 1.6506 -2.2205 -1.2899
Cl 0.4312 2.4956 1.4442
C 1.0644 1.9391 -0.0824
Cl 0.0633 2.5302 -1.3868
15
Frame 5
C -1.6121 -0.4290 1.2716
C -0.8057 -0.6401 0.0136
C 0.4806 -0.9367 -0.0189
H -1.3489 -0.5489 -0.9117
H 1.0252 -1.0332 0.9047
C 1.2739 -1.1886 -1.2782
H -0.9955 -0.5332 2.1562
H -2.4190 -1.1534 1.3312
H -2.0618 0.5596 1.2838
H 2.1284 -0.5232 -1.3260
H 0.6667 -1.0334 -2.1621
H 1.6448 -2.2092 -1.2948
Cl 0.4289 2.4866 1.4447
C 1.0600 1.9240 -0.0813
Cl 0.0619 2.5200 -1.3874
15
Frame 6
C -1.6084 -0.4140 1.2723
C -0.8020 -0.6232 0.0141
C 0.4841 -0.9218 -0.0192
H -1.3449 -0.5295 -0.9110
H 1.0287 -1.0210 0.9041
C 1.2762 -1.1742 -1.2790
H -0.9922 -0.5200 2.1568
H -2.4157 -1.1382 1.3300
H -2.0574 0.5746 1.2860
H 2.1361 -0.5158 -1.3232
H 0.6710 -1.0098 -2.1626
H 1.6380 -2.1980 -1.3003
Cl 0.4266 2.4773 1.4451
C 1.0554 1.9088 -0.0804
Cl 0.0606 2.5101 -1.3882
15
Frame 7
C -1.6047 -0.3991 1.2728
C -0.7982 -0.6058 0.0146
C 0.4877 -0.9067 -0.0194
H -1.3406 -0.5086 -0.9105
H 1.0319 -1.0096 0.9036
C 1.2785 -1.1596 -1.2799
H -0.9891 -0.5079 2.1574
H -2.4123 -1.1230 1.3281
H -2.0535 0.5897 1.2888
H 2.1446 -0.5093 -1.3193
H 0.6757 -0.9843 -2.1632
H 1.6304 -2.1868 -1.3063
Cl 0.4244 2.4681 1.4457
C 1.0507 1.8932 -0.0794
Cl 0.0592 2.5000 -1.3890
15
Frame 8
C -1.6012 -0.3844 1.2734
C -0.7945 -0.5882 0.0151
C 0.4913 -0.8911 -0.0196
H -1.3363 -0.4877 -0.9099
H 1.0351 -0.9976 0.9032
C 1.2809 -1.1448 -1.2806
H -0.9862 -0.4954 2.1581
H -2.4090 -1.1084 1.3263
H -2.0498 0.6044 1.2916
H 2.1534 -0.5029 -1.3156
H 0.6809 -0.9589 -2.1635
H 1.6221 -2.1754 -1.3122
Cl 0.4222 2.4588 1.4462
C 1.0462 1.8777 -0.0785
Cl 0.0577 2.4898 -1.3899
15
Frame 9
C -1.5978 -0.3698 1.2740
C -0.7907 -0.5707 0.0156
C 0.4950 -0.8755 -0.0198
H -1.3319 -0.4670 -0.9092
H 1.0384 -0.9856 0.9028
C 1.2833 -1.1300 -1.2814
H -0.9833 -0.4832 2.1585
H -2.4057 -1.0938 1.3243
H -2.0465 0.6189 1.2944
H 2.1629 -0.4978 -1.3110
H 0.6865 -0.9320 -2.1639
H 1.6129 -2.1643 -1.3184
Cl 0.4201 2.4495 1.4469
C 1.0414 1.8617 -0.0775
Cl 0.0563 2.4797 -1.3909
15
Frame 10
C -1.5944 -0.3553 1.2745
C -0.7870 -0.5533 0.0162
C 0.4987 -0.8597 -0.0199
H -1.3277 -0.4467 -0.9086
H 1.0417 -0.9729 0.9024
C 1.2857 -1.1153 -1.2820
H -0.9807 -0.4711 2.1594
H -2.4022 -1.0797 1.3222
H -2.0431 0.6333 1.2970
H 2.1721 -0.4928 -1.3070
H 0.6923 -0.9053 -2.1639
H 1.6030 -2.1531 -1.3250
Cl 0.4180 2.4402 1.4475
C 1.0367 1.8458 -0.0766
Cl 0.0548 2.4697 -1.3919
15
Frame 11
C -1.5912 -0.3411 1.2751
C -0.7833 -0.5357 0.0169
C 0.5025 -0.8438 -0.0199
H -1.3232 -0.4258 -0.9078
H 1.0451 -0.9609 0.9022
C 1.2881 -1.1004 -1.2826
H -0.9782 -0.4590 2.1601
H -2.3989 -1.0658 1.3200
H -2.0403 0.6473 1.2998
H 2.1819 -0.4887 -1.3019
H 0.6985 -0.8776 -2.1639
H 1.5928 -2.1418 -1.3315
Cl 0.4160 2.4308 1.4482
C 1.0319 1.8295 -0.0758
Cl 0.0533 2.4598 -1.3932
15
Frame 12
C -1.5880 -0.3270 1.2757
C -0.7797 -0.5184 0.0176
C 0.5064 -0.8274 -0.0199
H -1.3192 -0.4062 -0.9070
H 1.0486 -0.9473 0.9019
C 1.2905 -1.0856 -1.2832
H -0.9756 -0.4467 2.1607
H -2.3953 -1.0522 1.3181
H -2.0377 0.6611 1.3023
H 2.1922 -0.4857 -1.2972
H 0.7053 -0.8493 -2.1637
H 1.5810 -2.1307 -1.3385
Cl 0.4141 2.4215 1.4490
C 1.0271 1.8132 -0.0749
Cl 0.0517 2.4499 -1.3945
15
Frame 13
C -1.5849 -0.3131 1.2763
C -0.7760 -0.5010 0.0183
C 0.5104 -0.8109 -0.0198
H -1.3149 -0.3860 -0.9062
H 1.0522 -0.9342 0.9017
C 1.2928 -1.0710 -1.2837
H -0.9733 -0.4350 2.1615
H -2.3918 -1.0390 1.3157
H -2.0353 0.6746 1.3051
H 2.2025 -0.4832 -1.2919
H 0.7122 -0.8205 -2.1634
H 1.5689 -2.1197 -1.3454
Cl 0.4121 2.4122 1.4499
C 1.0223 1.7967 -0.0740
Cl 0.0502 2.4401 -1.3960
15
Frame 14
C -1.5819 -0.2994 1.2768
C -0.7725 -0.4837 0.0191
C 0.5145 -0.7941 -0.0197
H -1.3108 -0.3665 -0.9054
H 1.0559 -0.9204 0.9016
C 1.2951 -1.0563 -1.2841
H -0.9710 -0.4233 2.1622
H -2.3883 -1.0261 1.3135
H -2.0330 0.6878 1.3078
H 2.2129 -0.4816 -1.2872
H 0.7197 -0.7918 -2.1630
H 1.5558 -2.1085 -1.3524
Cl 0.4103 2.4030 1.4509
C 1.0174 1.7801 -0.0731
Cl 0.0487 2.4305 -1.3976
15
Frame 15
C -1.5789 -0.2860 1.2775
C -0.7690 -0.4664 0.0200
C 0.5188 -0.7770 -0.0196
H -1.3068 -0.3472 -0.9044
H 1.0597 -0.9061 0.9014
C 1.2974 -1.0419 -1.2846
H -0.9689 -0.4120 2.1630
H -2.3847 -1.0137 1.3108
H -2.0311 0.7006 1.3106
H 2.2231 -0.4804 -1.2823
H 0.7269 -0.7635 -2.1625
H 1.5426 -2.0974 -1.3589
Cl 0.4085 2.3937 1.4520
C 1.0124 1.7632 -0.0723
Cl 0.0472 2.4209 -1.3994
15
Frame 16
C -1.5761 -0.2730 1.2781
C -0.7655 -0.4491 0.0209
C 0.5231 -0.7595 -0.0195
H -1.3028 -0.3281 -0.9035
H 1.0636 -0.8917 0.9014
C 1.2996 -1.0277 -1.2850
H -0.9669 -0.4010 2.1637
H -2.3810 -1.0016 1.3082
H -2.0293 0.7131 1.3136
H 2.2334 -0.4800 -1.2779
H 0.7349 -0.7355 -2.1618
H 1.5288 -2.0863 -1.3654
Cl 0.4067 2.3846 1.4532
C 1.0074 1.7461 -0.0714
Cl 0.0457 2.4115 -1.4014
15
Frame 17
C -1.5733 -0.2602 1.2787
C -0.7621 -0.4318 0.0218
C 0.5277 -0.7414 -0.0193
H -1.2990 -0.3094 -0.9025
H 1.0677 -0.8762 0.9012
C 1.3017 -1.0137 -1.2854
H -0.9650 -0.3908 2.1646
H -2.3775 -0.9900 1.3050
H -2.0277 0.7251 1.3168
H 2.2436 -0.4803 -1.2736
H 0.7424 -0.7078 -2.1612
H 1.5143 -2.0755 -1.3712
Cl 0.4051 2.3755 1.4546
C 1.0022 1.7285 -0.0705
Cl 0.0442 2.4022 -1.4036
15
Frame 18
C -1.5706 -0.2480 1.2793
C -0.7588 -0.4144 0.0227
C 0.5324 -0.7227 -0.0192
H -1.2953 -0.2909 -0.9014
H 1.0720 -0.8603 0.9012
C 1.3037 -1.0000 -1.2857
H -0.9632 -0.3810 2.1653
H -2.3738 -0.9790 1.3017
H -2.0264 0.7365 1.3204
H 2.2533 -0.4812 -1.2700
H 0.7505 -0.6813 -2.1606
H 1.4996 -2.0645 -1.3763
Cl 0.4034 2.3665 1.4562
C 0.9967 1.7106 -0.0695
Cl 0.0428 2.3932 -1.4060
15
Frame 19
C -1.5679 -0.2362 1.2800
C -0.7555 -0.3969 0.0237
C 0.5374 -0.7036 -0.0190
H -1.2916 -0.2727 -0.9004
H 1.0765 -0.8438 0.9011
C 1.3056 -0.9868 -1.2861
H -0.9616 -0.3721 2.1661
H -2.3700 -0.9686 1.2978
H -2.0254 0.7475 1.3243
H 2.2630 -0.4826 -1.2669
H 0.7581 -0.6557 -2.1598
H 1.4846 -2.0541 -1.3805
Cl 0.4019 2.3576 1.4579
C 0.9911 1.6922 -0.0686
Cl 0.0414 2.3843 -1.4086
15
Frame 20
C -1.5654 -0.2251 1.2807
C -0.7523 -0.3793 0.0247
C 0.5427 -0.6835 -0.0189
H -1.2881 -0.2547 -0.8993
H 1.0811 -0.8266 0.9010
C 1.3074 -0.9741 -1.2863
H -0.9600 -0.3642 2.1668
H -2.3661 -0.9592 1.2936
H -2.0245 0.7575 1.3287
H 2.2721 -0.4849 -1.2646
H 0.7660 -0.6319 -2.1594
H 1.4691 -2.0437 -1.3836
Cl 0.4004 2.3489 1.4598
C 0.9851 1.6733 -0.0676
Cl 0.0401 2.3757 -1.4114
15
Frame 21
C -1.5629 -0.2148 1.2813
C -0.7492 -0.3617 0.0257
C 0.5482 -0.6629 -0.0188
H -1.2847 -0.2368 -0.8983
H 1.0859 -0.8092 0.9009
C 1.3090 -0.9619 -1.2865
H -0.9585 -0.3573 2.1674
H -2.3621 -0.9506 1.2887
H -2.0242 0.7666 1.3336
H 2.2812 -0.4877 -1.2628
H 0.7732 -0.6092 -2.1589
H 1.4535 -2.0340 -1.3854
Cl 0.3990 2.3405 1.4618
C 0.9787 1.6538 -0.0666
Cl 0.0389 2.3674 -1.4144
15
Frame 22
C -1.5606 -0.2052 1.2820
C -0.7462 -0.3440 0.0267
C 0.5541 -0.6413 -0.0188
H -1.2813 -0.2192 -0.8972
H 1.0908 -0.7912 0.9008
C 1.3105 -0.9505 -1.2866
H -0.9571 -0.3515 2.1679
H -2.3579 -0.9431 1.2835
H -2.0241 0.7748 1.3389
H 2.2893 -0.4912 -1.2619
H 0.7806 -0.5891 -2.1588
H 1.4377 -2.0245 -1.3856
Cl 0.3978 2.3323 1.4640
C 0.9718 1.6336 -0.0655
Cl 0.0377 2.3594 -1.4175
15
Frame 23
C -1.5583 -0.1966 1.2826
C -0.7434 -0.3264 0.0277
C 0.5603 -0.6189 -0.0188
H -1.2782 -0.2019 -0.8962
H 1.0959 -0.7728 0.9006
C 1.3117 -0.9399 -1.2866
H -0.9559 -0.3470 2.1683
H -2.3537 -0.9369 1.2775
H -2.0247 0.7816 1.3448
H 2.2974 -0.4953 -1.2617
H 0.7872 -0.5706 -2.1587
H 1.4217 -2.0161 -1.3844
Cl 0.3967 2.3245 1.4661
C 0.9643 1.6127 -0.0644
Cl 0.0367 2.3519 -1.4206
15
Frame 24
C -1.5561 -0.1891 1.2831
C -0.7407 -0.3088 0.0286
C 0.5670 -0.5956 -0.0189
H -1.2751 -0.1849 -0.8953
H 1.1010 -0.7543 0.9005
C 1.3128 -0.9301 -1.2865
H -0.9546 -0.3433 2.1686
H -2.3489 -0.9321 1.2713
H -2.0257 0.7872 1.3507
H 2.3046 -0.5002 -1.2623
H 0.7936 -0.5547 -2.1590
H 1.4056 -2.0080 -1.3813
Cl 0.3958 2.3171 1.4682
C 0.9556 1.5910 -0.0633
Cl 0.0360 2.3448 -1.4236
15
Frame 25
C -1.5541 -0.1825 1.2836
C -0.7382 -0.2915 0.0295
C 0.5741 -0.5716 -0.0191
H -1.2723 -0.1685 -0.8945
H 1.1062 -0.7363 0.9002
C 1.3137 -0.9213 -1.2864
H -0.9530 -0.3404 2.1685
H -2.3438 -0.9288 1.2650
H -2.0276 0.7916 1.3571
H 2.3117 -0.5059 -1.2636
H 0.7994 -0.5405 -2.1593
H 1.3893 -2.0010 -1.3769
Cl 0.3951 2.3102 1.4701
C 0.9458 1.5687 -0.0622
Cl 0.0355 2.3382 -1.4264
15
Frame 26
C -1.5521 -0.1772 1.2840
C -0.7359 -0.2745 0.0303
C 0.5816 -0.5470 -0.0195
H -1.2695 -0.1525 -0.8938
H 1.1114 -0.7186 0.8998
C 1.3145 -0.9135 -1.2862
H -0.9517 -0.3373 2.1687
H -2.3377 -0.9277 1.2588
H -2.0312 0.7938 1.3625
H 2.3181 -0.5124 -1.2654
H 0.8051 -0.5287 -2.1601
H 1.3729 -1.9945 -1.3710
Cl 0.3947 2.3039 1.4717
C 0.9341 1.5457 -0.0610
Cl 0.0353 2.3321 -1.4289
15
Frame 27
C -1.5506 -0.1730 1.2843
C -0.7339 -0.2579 0.0309
C 0.5895 -0.5225 -0.0200
H -1.2670 -0.1372 -0.8933
H 1.1162 -0.7030 0.8994
C 1.3152 -0.9065 -1.2859
H -0.9491 -0.3302 2.1686
H -2.3281 -0.9321 1.2550
H -2.0396 0.7927 1.3659
H 2.3243 -0.5195 -1.2670
H 0.8107 -0.5177 -2.1607
H 1.3567 -1.9887 -1.3649
Cl 0.3949 2.2984 1.4730
C 0.9201 1.5222 -0.0594
Cl 0.0356 2.3265 -1.4311
15
Frame 28
C -1.5472 -0.1666 1.2849
C -0.7297 -0.2264 0.0324
C 0.6079 -0.4735 -0.0214
H -1.2616 -0.1101 -0.8924
H 1.1271 -0.6756 0.8977
C 1.3165 -0.8965 -1.2855
H -0.9464 -0.3306 2.1682
H -2.3178 -0.9323 1.2419
H -2.0447 0.7937 1.3790
H 2.3344 -0.5337 -1.2744
H 0.8183 -0.5056 -2.1626
H 1.3283 -1.9803 -1.3483
Cl 0.3957 2.2886 1.4739
C 0.8840 1.4756 -0.0560
Cl 0.0375 2.3172 -1.4337
15
Frame 29
C -1.5455 -0.1643 1.2852
C -0.7275 -0.2118 0.0332
C 0.6184 -0.4499 -0.0223
H -1.2587 -0.0992 -0.8921
H 1.1333 -0.6644 0.8965
C 1.3173 -0.8935 -1.2854
H -0.9463 -0.3378 2.1676
H -2.3177 -0.9277 1.2333
H -2.0413 0.7961 1.3884
H 2.3388 -0.5409 -1.2800
H 0.8203 -0.5036 -2.1637
H 1.3164 -1.9777 -1.3387
Cl 0.3963 2.2844 1.4734
C 0.8616 1.4532 -0.0541
Cl 0.0391 2.3136 -1.4340
15
Frame 30
C -1.5441 -0.1626 1.2854
C -0.7253 -0.1973 0.0338
C 0.6294 -0.4278 -0.0232
H -1.2558 -0.0895 -0.8920
H 1.1393 -0.6564 0.8951
C 1.3182 -0.8910 -1.2854
H -0.9454 -0.3413 2.1671
H -2.3148 -0.9273 1.2271
H -2.0413 0.7963 1.3961
H 2.3429 -0.5482 -1.2854
H 0.8223 -0.5018 -2.1645
H 1.3054 -1.9754 -1.3305
Cl 0.3974 2.2809 1.4726
C 0.8362 1.4314 -0.0517
Cl 0.0411 2.3103 -1.4341
15
Frame 31
C -1.5429 -0.1613 1.2856
C -0.7230 -0.1830 0.0344
C 0.6408 -0.4074 -0.0242
H -1.2530 -0.0814 -0.8922
H 1.1452 -0.6503 0.8936
C 1.3191 -0.8893 -1.2856
H -0.9446 -0.3441 2.1667
H -2.3116 -0.9274 1.2216
H -2.0428 0.7955 1.4025
H 2.3469 -0.5555 -1.2912
H 0.8240 -0.5005 -2.1651
H 1.2957 -1.9737 -1.3233
Cl 0.3989 2.2778 1.4717
C 0.8085 1.4105 -0.0491
Cl 0.0435 2.3074 -1.4339
15
Frame 32
C -1.5419 -0.1604 1.2857
C -0.7205 -0.1687 0.0350
C 0.6526 -0.3887 -0.0252
H -1.2501 -0.0747 -0.8923
H 1.1513 -0.6459 0.8921
C 1.3202 -0.8880 -1.2858
H -0.9437 -0.3463 2.1666
H -2.3082 -0.9286 1.2169
H -2.0444 0.7944 1.4087
H 2.3508 -0.5630 -1.2973
H 0.8253 -0.4997 -2.1656
H 1.2869 -1.9722 -1.3168
Cl 0.4007 2.2751 1.4705
C 0.7789 1.3906 -0.0462
Cl 0.0461 2.3049 -1.4336
15
Frame 33
C -1.5410 -0.1596 1.2859
C -0.7178 -0.1541 0.0355
C 0.6645 -0.3718 -0.0262
H -1.2471 -0.0696 -0.8926
H 1.1575 -0.6427 0.8904
C 1.3214 -0.8872 -1.2861
H -0.9431 -0.3482 2.1661
H -2.3044 -0.9300 1.2126
H -2.0465 0.7927 1.4144
H 2.3547 -0.5703 -1.3037
H 0.8264 -0.4993 -2.1660
H 1.2793 -1.9712 -1.3112
Cl 0.4026 2.2726 1.4693
C 0.7477 1.3716 -0.0432
Cl 0.0488 2.3026 -1.4331
15
Frame 34
C -1.5401 -0.1590 1.2861
C -0.7146 -0.1393 0.0361
C 0.6765 -0.3568 -0.0271
H -1.2439 -0.0657 -0.8929
H 1.1640 -0.6404 0.8889
C 1.3228 -0.8866 -1.2865
H -0.9421 -0.3499 2.1662
H -2.3005 -0.9319 1.2085
H -2.0489 0.7908 1.4198
H 2.3584 -0.5778 -1.3105
H 0.8272 -0.4992 -2.1663
H 1.2725 -1.9701 -1.3061
Cl 0.4046 2.2704 1.4680
C 0.7152 1.3535 -0.0400
Cl 0.0517 2.3005 -1.4326
15
Frame 35
C -1.5393 -0.1584 1.2862
C -0.7110 -0.1240 0.0366
C 0.6885 -0.3434 -0.0280
H -1.2404 -0.0628 -0.8932
H 1.1706 -0.6384 0.8872
C 1.3242 -0.8861 -1.2869
H -0.9414 -0.3514 2.1660
H -2.2960 -0.9341 1.2045
H -2.0515 0.7884 1.4251
H 2.3624 -0.5851 -1.3175
H 0.8279 -0.4992 -2.1665
H 1.2665 -1.9693 -1.3015
Cl 0.4068 2.2683 1.4667
C 0.6817 1.3362 -0.0368
Cl 0.0546 2.2985 -1.4321
15
Frame 36
C -1.5385 -0.1579 1.2864
C -0.7070 -0.1082 0.0372
C 0.7002 -0.3317 -0.0289
H -1.2367 -0.0610 -0.8933
H 1.1776 -0.6364 0.8858
C 1.3258 -0.8857 -1.2874
H -0.9406 -0.3528 2.1660
H -2.2913 -0.9367 1.2003
H -2.0545 0.7858 1.4301
H 2.3661 -0.5926 -1.3247
H 0.8285 -0.4994 -2.1668
H 1.2610 -1.9685 -1.2973
Cl 0.4090 2.2664 1.4654
C 0.6474 1.3197 -0.0335
Cl 0.0576 2.2967 -1.4316
15
Frame 37
C -1.5376 -0.1575 1.2865
C -0.7025 -0.0918 0.0379
C 0.7116 -0.3216 -0.0297
H -1.2327 -0.0602 -0.8932
H 1.1850 -0.6341 0.8845
C 1.3275 -0.8854 -1.2881
H -0.9397 -0.3539 2.1660
H -2.2860 -0.9396 1.1960
H -2.0577 0.7829 1.4350
H 2.3700 -0.5999 -1.3322
H 0.8289 -0.4998 -2.1670
H 1.2560 -1.9677 -1.2933
Cl 0.4112 2.2645 1.4642
C 0.6125 1.3041 -0.0302
Cl 0.0606 2.2949 -1.4312
15
Frame 38
C -1.5366 -0.1571 1.2866
C -0.6977 -0.0749 0.0386
C 0.7227 -0.3129 -0.0304
H -1.2285 -0.0603 -0.8929
H 1.1928 -0.6314 0.8835
C 1.3293 -0.8850 -1.2888
H -0.9388 -0.3549 2.1660
H -2.2802 -0.9429 1.1914
H -2.0613 0.7796 1.4397
H 2.3738 -0.6072 -1.3398
H 0.8293 -0.5001 -2.1672
H 1.2514 -1.9668 -1.2895
Cl 0.4135 2.2626 1.4629
C 0.5770 1.2891 -0.0269
Cl 0.0637 2.2932 -1.4308
15
Frame 39
C -1.5355 -0.1568 1.2867
C -0.6927 -0.0575 0.0395
C 0.7335 -0.3052 -0.0311
H -1.2241 -0.0610 -0.8921
H 1.2009 -0.6280 0.8826
C 1.3313 -0.8847 -1.2895
H -0.9378 -0.3558 2.1660
H -2.2738 -0.9465 1.1863
H -2.0654 0.7760 1.4442
H 2.3777 -0.6144 -1.3476
H 0.8297 -0.5006 -2.1674
H 1.2472 -1.9659 -1.2858
Cl 0.4157 2.2608 1.4617
C 0.5413 1.2749 -0.0237
Cl 0.0668 2.2914 -1.4304
15
Frame 40
C -1.5343 -0.1565 1.2867
C -0.6876 -0.0398 0.0406
C 0.7439 -0.2985 -0.0316
H -1.2195 -0.0622 -0.8909
H 1.2095 -0.6238 0.8819
C 1.3334 -0.8843 -1.2904
H -0.9367 -0.3564 2.1661
H -2.2667 -0.9505 1.1808
H -2.0699 0.7720 1.4487
H 2.3815 -0.6215 -1.3554
H 0.8301 -0.5011 -2.1677
H 1.2432 -1.9650 -1.2822
Cl 0.4180 2.2589 1.4605
C 0.5052 1.2614 -0.0205
Cl 0.0699 2.2897 -1.4300
15
Frame 41
C -1.5329 -0.1562 1.2867
C -0.6826 -0.0218 0.0419
C 0.7540 -0.2922 -0.0320
H -1.2150 -0.0637 -0.8891
H 1.2184 -0.6184 0.8814
C 1.3357 -0.8838 -1.2914
H -0.9355 -0.3569 2.1660
H -2.2588 -0.9550 1.1746
H -2.0751 0.7675 1.4532
H 2.3854 -0.6286 -1.3634
H 0.8305 -0.5016 -2.1680
H 1.2395 -1.9639 -1.2787
Cl 0.4204 2.2568 1.4593
C 0.4690 1.2486 -0.0173
Cl 0.0731 2.2878 -1.4296
15
Frame 42
C -1.5314 -0.1560 1.2866
C -0.6780 -0.0038 0.0435
C 0.7636 -0.2859 -0.0324
H -1.2107 -0.0654 -0.8866
H 1.2278 -0.6113 0.8812
C 1.3381 -0.8831 -1.2924
H -0.9340 -0.3571 2.1659
H -2.2498 -0.9600 1.1679
H -2.0811 0.7622 1.4578
H 2.3893 -0.6356 -1.3715
H 0.8310 -0.5020 -2.1685
H 1.2358 -1.9627 -1.2751
Cl 0.4227 2.2546 1.4580
C 0.4325 1.2368 -0.0143
Cl 0.0764 2.2858 -1.4293
15
Frame 43
C -1.5297 -0.1558 1.2865
C -0.6743 0.0139 0.0455
C 0.7728 -0.2789 -0.0327
H -1.2070 -0.0671 -0.8835
H 1.2376 -0.6018 0.8812
C 1.3408 -0.8822 -1.2935
H -0.9320 -0.3569 2.1657
H -2.2394 -0.9660 1.1607
H -2.0882 0.7561 1.4625
H 2.3934 -0.6425 -1.3797
H 0.8318 -0.5025 -2.1691
H 1.2322 -1.9610 -1.2711
Cl 0.4253 2.2520 1.4565
C 0.3958 1.2262 -0.0113
Cl 0.0800 2.2835 -1.4289
15
Frame 44
C -1.5279 -0.1559 1.2866
C -0.6724 0.0305 0.0480
C 0.7815 -0.2704 -0.0331
H -1.2046 -0.0690 -0.8797
H 1.2480 -0.5885 0.8813
C 1.3438 -0.8807 -1.2946
H -0.9295 -0.3563 2.1655
H -2.2272 -0.9735 1.1534
H -2.0971 0.7483 1.4676
H 2.3977 -0.6494 -1.3880
H 0.8330 -0.5029 -2.1700
H 1.2283 -1.9587 -1.2663
Cl 0.4280 2.2488 1.4548
C 0.3589 1.2179 -0.0086
Cl 0.0840 2.2807 -1.4284
15
Frame 45
C -1.5262 -0.1568 1.2873
C -0.6736 0.0447 0.0510
C 0.7888 -0.2587 -0.0335
H -1.2047 -0.0715 -0.8752
H 1.2588 -0.5693 0.8815
C 1.3470 -0.8779 -1.2954
H -0.9260 -0.3544 2.1655
H -2.2128 -0.9836 1.1475
H -2.1086 0.7380 1.4730
H 2.4023 -0.6556 -1.3956
H 0.8350 -0.5029 -2.1714
H 1.2240 -1.9549 -1.2599
Cl 0.4312 2.2446 1.4527
C 0.3228 1.2132 -0.0063
Cl 0.0889 2.2771 -1.4280
15
Frame 46
C -1.5252 -0.1596 1.2895
C -0.6790 0.0545 0.0544
C 0.7934 -0.2421 -0.0344
H -1.2093 -0.0762 -0.8705
H 1.2681 -0.5426 0.8814
C 1.3500 -0.8725 -1.2953
H -0.9212 -0.3502 2.1665
H -2.1966 -0.9982 1.1468
H -2.1237 0.7240 1.4784
H 2.4068 -0.6593 -1.4007
H 0.8383 -0.5021 -2.1735
H 1.2194 -1.9484 -1.2506
Cl 0.4350 2.2390 1.4502
C 0.2901 1.2140 -0.0053
Cl 0.0948 2.2724 -1.4279
15
Frame 47
C -1.5256 -0.1652 1.2942
C -0.6880 0.0594 0.0575
C 0.7936 -0.2220 -0.0358
H -1.2181 -0.0825 -0.8658
H 1.2737 -0.5113 0.8807
C 1.3521 -0.8634 -1.2934
H -0.9155 -0.3426 2.1696
H -2.1792 -1.0180 1.1542
H -2.1421 0.7059 1.4833
H 2.4102 -0.6574 -1.4005
H 0.8427 -0.4992 -2.1756
H 1.2155 -1.9382 -1.2387
Cl 0.4393 2.2324 1.4477
C 0.2640 1.2192 -0.0060
Cl 0.1017 2.2672 -1.4289
15
Frame 48
C -1.5268 -0.1735 1.3012
C -0.6986 0.0616 0.0603
C 0.7896 -0.2022 -0.0371
H -1.2296 -0.0888 -0.8612
H 1.2740 -0.4824 0.8799
C 1.3529 -0.8503 -1.2898
H -0.9095 -0.3315 2.1751
H -2.1599 -1.0430 1.1683
H -2.1638 0.6835 1.4876
H 2.4119 -0.6476 -1.3946
H 0.8474 -0.4928 -2.1769
H 1.2142 -1.9244 -1.2270
Cl 0.4439 2.2255 1.4457
C 0.2442 1.2257 -0.0076
Cl 0.1092 2.2622 -1.4317
15
Frame 49
C -1.5280 -0.1835 1.3092
C -0.7098 0.0633 0.0632
C 0.7825 -0.1860 -0.0373
H -1.2426 -0.0933 -0.8563
H 1.2697 -0.4599 0.8800
C 1.3529 -0.8344 -1.2855
H -0.9033 -0.3171 2.1818
H -2.1361 -1.0718 1.1855
H -2.1885 0.6564 1.4913
H 2.4120 -0.6293 -1.3856
H 0.8510 -0.4822 -2.1767
H 1.2172 -1.9086 -1.2191
Cl 0.4485 2.2192 1.4444
C 0.2281 1.2314 -0.0091
Cl 0.1169 2.2578 -1.4364
15
Frame 50
C -1.5286 -0.1942 1.3175
C -0.7214 0.0652 0.0661
C 0.7731 -0.1745 -0.0365
H -1.2569 -0.0954 -0.8511
H 1.2614 -0.4451 0.8812
C 1.3526 -0.8168 -1.2817
H -0.8971 -0.2992 2.1890
H -2.1071 -1.1037 1.2040
H -2.2162 0.6251 1.4940
H 2.4106 -0.6033 -1.3763
H 0.8528 -0.4684 -2.1756
H 1.2254 -1.8921 -1.2167
Cl 0.4531 2.2140 1.4438
C 0.2143 1.2360 -0.0095
Cl 0.1248 2.2538 -1.4425
15
Frame 51
C -1.5289 -0.2053 1.3256
C -0.7332 0.0674 0.0688
C 0.7624 -0.1669 -0.0353
H -1.2725 -0.0949 -0.8460
H 1.2502 -0.4372 0.8826
C 1.3519 -0.7988 -1.2795
H -0.8917 -0.2768 2.1963
H -2.0726 -1.1374 1.2235
H -2.2464 0.5895 1.4946
H 2.4077 -0.5717 -1.3688
H 0.8520 -0.4536 -2.1744
H 1.2383 -1.8758 -1.2187
Cl 0.4574 2.2105 1.4439
C 0.2025 1.2395 -0.0088
Cl 0.1328 2.2495 -1.4489
15
Frame 52
C -1.5289 -0.2163 1.3328
C -0.7450 0.0697 0.0712
C 0.7510 -0.1621 -0.0346
H -1.2884 -0.0917 -0.8411
H 1.2377 -0.4346 0.8832
C 1.3508 -0.7809 -1.2792
H -0.8882 -0.2496 2.2032
H -2.0327 -1.1721 1.2439
H -2.2789 0.5499 1.4922
H 2.4029 -0.5358 -1.3648
H 0.8478 -0.4405 -2.1740
H 1.2552 -1.8598 -1.2232
Cl 0.4612 2.2090 1.4443
C 0.1924 1.2422 -0.0070
Cl 0.1410 2.2446 -1.4545
15
Frame 53
C -1.5289 -0.2274 1.3388
C -0.7560 0.0721 0.0732
C 0.7399 -0.1592 -0.0346
H -1.3039 -0.0871 -0.8368
H 1.2253 -0.4358 0.8826
C 1.3486 -0.7638 -1.2809
H -0.8884 -0.2177 2.2098
H -1.9878 -1.2066 1.2643
H -2.3134 0.5060 1.4858
H 2.3955 -0.4968 -1.3664
H 0.8387 -0.4311 -2.1745
H 1.2754 -1.8446 -1.2285
Cl 0.4646 2.2096 1.4448
C 0.1839 1.2441 -0.0042
Cl 0.1493 2.2390 -1.4586
15
Frame 54
C -1.5292 -0.2383 1.3434
C -0.7657 0.0741 0.0751
C 0.7299 -0.1575 -0.0349
H -1.3174 -0.0821 -0.8331
H 1.2148 -0.4394 0.8810
C 1.3446 -0.7483 -1.2846
H -0.8932 -0.1823 2.2158
H -1.9392 -1.2404 1.2845
H -2.3492 0.4582 1.4750
H 2.3842 -0.4553 -1.3755
H 0.8221 -0.4282 -2.1754
H 1.2986 -1.8306 -1.2323
Cl 0.4674 2.2119 1.4452
C 0.1770 1.2455 -0.0007
Cl 0.1578 2.2329 -1.4610
15
Frame 55
C -1.5298 -0.2495 1.3466
C -0.7732 0.0754 0.0772
C 0.7220 -0.1565 -0.0352
H -1.3275 -0.0781 -0.8299
H 1.2077 -0.4435 0.8787
C 1.3381 -0.7356 -1.2898
H -0.9035 -0.1451 2.2216
H -1.8880 -1.2721 1.3039
H -2.3848 0.4068 1.4598
H 2.3671 -0.4119 -1.3948
H 0.7956 -0.4356 -2.1754
H 1.3252 -1.8184 -1.2325
Cl 0.4691 2.2157 1.4453
C 0.1717 1.2464 0.0029
Cl 0.1664 2.2275 -1.4620
15
Frame 56
C -1.5244 -0.2541 1.3532
C -0.7757 0.0751 0.0800
C 0.7191 -0.1566 -0.0368
H -1.3335 -0.0789 -0.8247
H 1.2087 -0.4474 0.8737
C 1.3284 -0.7291 -1.2981
H -0.8975 -0.1357 2.2259
H -1.8663 -1.2825 1.3163
H -2.3894 0.3892 1.4656
H 2.3456 -0.3772 -1.4258
H 0.7608 -0.4526 -2.1757
H 1.3475 -1.8113 -1.2318
Cl 0.4637 2.2183 1.4456
C 0.1699 1.2462 0.0044
Cl 0.1762 2.2243 -1.4625
