15
Frame 1
C -1.6869 -0.1107 -0.5707
C -0.4740 0.0513 0.2751
C 0.7416 -0.1274 -0.5487
H -0.5008 -0.7387 1.0842
C -0.4619 1.4135 0.9527
C 1.6628 -1.2294 -0.2977
H 0.9469 0.5980 -1.3405
H -0.3790 2.2332 0.2001
H 0.4117 1.4753 1.6450
H -1.3997 1.5576 1.5400
H 1.1134 -2.2047 -0.2506
H 2.1808 -1.0812 0.6862
H 2.4415 -1.2994 -1.0967
Cl -2.5135 -1.5625 -0.5482
Cl -2.0828 1.0251 -1.7302
15
Frame 2
C -1.6668 -0.1225 -0.5711
C -0.4669 0.0590 0.2866
C 0.7502 -0.1172 -0.5334
H -0.4920 -0.7254 1.1011
C -0.4720 1.4258 0.9534
C 1.6507 -1.2408 -0.3107
H 0.9740 0.6261 -1.3019
H -0.3915 2.2407 0.1953
H 0.3960 1.5010 1.6510
H -1.4150 1.5656 1.5333
H 1.0827 -2.2048 -0.2648
H 2.1876 -1.1146 0.6653
H 2.4143 -1.3167 -1.1231
Cl -2.4807 -1.5813 -0.5453
Cl -2.0704 1.0052 -1.7357
15
Frame 3
C -1.6466 -0.1342 -0.5714
C -0.4599 0.0666 0.2982
C 0.7588 -0.1071 -0.5182
H -0.4833 -0.7120 1.1180
C -0.4822 1.4380 0.9540
C 1.6387 -1.2522 -0.3236
H 1.0011 0.6541 -1.2632
H -0.4041 2.2481 0.1905
H 0.3804 1.5268 1.6569
H -1.4303 1.5736 1.5266
H 1.0519 -2.2048 -0.2791
H 2.1943 -1.1480 0.6444
H 2.3870 -1.3340 -1.1496
Cl -2.4480 -1.6002 -0.5425
Cl -2.0579 0.9853 -1.7411
15
Frame 4
C -1.6265 -0.1460 -0.5718
C -0.4528 0.0743 0.3097
C 0.7674 -0.0969 -0.5029
H -0.4745 -0.6987 1.1349
C -0.4923 1.4503 0.9547
C 1.6266 -1.2636 -0.3366
H 1.0282 0.6822 -1.2246
H -0.4166 2.2556 0.1857
H 0.3647 1.5525 1.6629
H -1.4456 1.5816 1.5199
H 1.0212 -2.2049 -0.2933
H 2.2011 -1.1814 0.6235
H 2.3598 -1.3513 -1.1760
Cl -2.4152 -1.6190 -0.5396
Cl -2.0455 0.9654 -1.7466
15
Frame 5
C -1.6043 -0.1544 -0.5788
C -0.4485 0.0803 0.3201
C 0.7767 -0.0883 -0.4834
H -0.4742 -0.6896 1.1480
C -0.5055 1.4582 0.9579
C 1.6149 -1.2728 -0.3473
H 1.0610 0.7070 -1.1759
H -0.4256 2.2609 0.1866
H 0.3416 1.5694 1.6762
H -1.4665 1.5853 1.5104
H 0.9986 -2.1992 -0.2505
H 2.2474 -1.1883 0.5700
H 2.2907 -1.3885 -1.2244
Cl -2.3830 -1.6329 -0.5514
Cl -2.0232 0.9529 -1.7575
15
Frame 6
C -1.5822 -0.1627 -0.5857
C -0.4441 0.0862 0.3304
C 0.7861 -0.0798 -0.4639
H -0.4739 -0.6806 1.1610
C -0.5187 1.4661 0.9610
C 1.6032 -1.2820 -0.3580
H 1.0938 0.7319 -1.1271
H -0.4346 2.2663 0.1876
H 0.3184 1.5864 1.6895
H -1.4875 1.5890 1.5010
H 0.9760 -2.1934 -0.2078
H 2.2936 -1.1953 0.5166
H 2.2217 -1.4257 -1.2729
Cl -2.3509 -1.6469 -0.5633
Cl -2.0009 0.9404 -1.7683
15
Frame 7
C -1.5600 -0.1711 -0.5927
C -0.4398 0.0922 0.3408
C 0.7954 -0.0712 -0.4444
H -0.4736 -0.6715 1.1741
C -0.5319 1.4740 0.9642
C 1.5915 -1.2912 -0.3687
H 1.1266 0.7567 -1.0784
H -0.4436 2.2716 0.1885
H 0.2953 1.6033 1.7028
H -1.5084 1.5927 1.4915
H 0.9534 -2.1877 -0.1650
H 2.3399 -1.2022 0.4631
H 2.1526 -1.4629 -1.3213
Cl -2.3187 -1.6608 -0.5751
Cl -1.9786 0.9279 -1.7792
15
Frame 8
C -1.5273 -0.1774 -0.6082
C -0.4383 0.0964 0.3548
C 0.7925 -0.0702 -0.4317
H -0.4806 -0.6657 1.1885
C -0.5420 1.4790 0.9720
C 1.5805 -1.2965 -0.3733
H 1.1326 0.7617 -1.0560
H -0.4424 2.2750 0.1961
H 0.2731 1.6114 1.7234
H -1.5269 1.5976 1.4834
H 0.9531 -2.1804 -0.0954
H 2.3897 -1.1881 0.3966
H 2.0685 -1.5027 -1.3591
Cl -2.2809 -1.6704 -0.6060
Cl -1.9517 0.9301 -1.7850
15
Frame 9
C -1.5011 -0.1836 -0.6172
C -0.4365 0.0996 0.3666
C 0.7843 -0.0720 -0.4302
H -0.4822 -0.6605 1.2013
C -0.5451 1.4835 0.9775
C 1.5720 -1.2991 -0.3767
H 1.1223 0.7583 -1.0581
H -0.4373 2.2774 0.2002
H 0.2628 1.6178 1.7364
H -1.5349 1.6047 1.4789
H 0.9498 -2.1793 -0.0771
H 2.3983 -1.1844 0.3743
H 2.0381 -1.5154 -1.3711
Cl -2.2515 -1.6788 -0.6227
Cl -1.9389 0.9317 -1.7821
15
Frame 10
C -1.4750 -0.1895 -0.6257
C -0.4346 0.1028 0.3782
C 0.7760 -0.0740 -0.4294
H -0.4836 -0.6555 1.2136
C -0.5481 1.4880 0.9827
C 1.5635 -1.3016 -0.3799
H 1.1115 0.7546 -1.0615
H -0.4323 2.2797 0.2043
H 0.2529 1.6242 1.7488
H -1.5424 1.6115 1.4747
H 0.9465 -2.1784 -0.0604
H 2.4046 -1.1809 0.3533
H 2.0097 -1.5273 -1.3814
Cl -2.2219 -1.6871 -0.6392
Cl -1.9269 0.9337 -1.7781
15
Frame 11
C -1.4477 -0.1954 -0.6340
C -0.4324 0.1064 0.3903
C 0.7688 -0.0754 -0.4272
H -0.4848 -0.6501 1.2264
C -0.5521 1.4928 0.9880
C 1.5544 -1.3046 -0.3840
H 1.1040 0.7526 -1.0604
H -0.4262 2.2821 0.2086
H 0.2395 1.6310 1.7636
H -1.5524 1.6187 1.4675
H 0.9440 -2.1765 -0.0400
H 2.4146 -1.1786 0.3257
H 1.9740 -1.5414 -1.3942
Cl -2.1905 -1.6958 -0.6552
Cl -1.9132 0.9344 -1.7752
15
Frame 12
C -1.4206 -0.2015 -0.6419
C -0.4302 0.1102 0.4022
C 0.7613 -0.0765 -0.4256
H -0.4851 -0.6445 1.2390
C -0.5558 1.4978 0.9931
C 1.5449 -1.3076 -0.3884
H 1.0977 0.7515 -1.0589
H -0.4215 2.2848 0.2131
H 0.2273 1.6385 1.7764
H -1.5607 1.6253 1.4616
H 0.9398 -2.1749 -0.0248
H 2.4200 -1.1780 0.3016
H 1.9421 -1.5536 -1.4055
Cl -2.1588 -1.7048 -0.6687
Cl -1.9004 0.9334 -1.7731
15
Frame 13
C -1.3923 -0.2076 -0.6493
C -0.4281 0.1142 0.4146
C 0.7547 -0.0770 -0.4222
H -0.4863 -0.6387 1.2522
C -0.5603 1.5032 0.9981
C 1.5346 -1.3109 -0.3936
H 1.0942 0.7517 -1.0530
H -0.4161 2.2875 0.2169
H 0.2132 1.6464 1.7908
H -1.5711 1.6329 1.4537
H 0.9362 -2.1731 -0.0068
H 2.4284 -1.1784 0.2717
H 1.9038 -1.5668 -1.4190
Cl -2.1250 -1.7146 -0.6825
Cl -1.8859 0.9312 -1.7717
15
Frame 14
C -1.3657 -0.2131 -0.6554
C -0.4260 0.1179 0.4265
C 0.7468 -0.0785 -0.4212
H -0.4866 -0.6331 1.2647
C -0.5638 1.5082 1.0027
C 1.5249 -1.3139 -0.3985
H 1.0891 0.7510 -1.0498
H -0.4104 2.2898 0.2201
H 0.2010 1.6540 1.8038
H -1.5798 1.6403 1.4468
H 0.9323 -2.1724 0.0054
H 2.4321 -1.1787 0.2484
H 1.8736 -1.5772 -1.4294
Cl -2.0932 -1.7237 -0.6950
Cl -1.8742 0.9295 -1.7690
15
Frame 15
C -1.3400 -0.2184 -0.6611
C -0.4242 0.1215 0.4377
C 0.7382 -0.0805 -0.4215
H -0.4867 -0.6278 1.2764
C -0.5663 1.5133 1.0068
C 1.5155 -1.3167 -0.4026
H 1.0812 0.7486 -1.0506
H -0.4096 2.2924 0.2224
H 0.1941 1.6632 1.8109
H -1.5842 1.6462 1.4453
H 0.9260 -2.1733 0.0078
H 2.4286 -1.1813 0.2354
H 1.8543 -1.5827 -1.4357
Cl -2.0629 -1.7324 -0.7059
Cl -1.8640 0.9280 -1.7654
15
Frame 16
C -1.3112 -0.2237 -0.6671
C -0.4219 0.1259 0.4501
C 0.7319 -0.0803 -0.4176
H -0.4875 -0.6218 1.2893
C -0.5710 1.5188 1.0113
C 1.5040 -1.3202 -0.4085
H 1.0818 0.7511 -1.0405
H -0.4063 2.2951 0.2259
H 0.1804 1.6724 1.8232
H -1.5939 1.6526 1.4381
H 0.9212 -2.1718 0.0227
H 2.4337 -1.1842 0.2049
H 1.8152 -1.5942 -1.4486
Cl -2.0272 -1.7424 -0.7170
Cl -1.8492 0.9228 -1.7660
15
Frame 17
C -1.2838 -0.2286 -0.6728
C -0.4204 0.1299 0.4621
C 0.7245 -0.0812 -0.4151
H -0.4892 -0.6163 1.3015
C -0.5748 1.5242 1.0156
C 1.4932 -1.3235 -0.4136
H 1.0801 0.7520 -1.0332
H -0.4069 2.2976 0.2279
H 0.1720 1.6824 1.8312
H -1.6003 1.6585 1.4362
H 0.9160 -2.1717 0.0314
H 2.4346 -1.1874 0.1818
H 1.7845 -1.6027 -1.4582
Cl -1.9935 -1.7517 -0.7285
Cl -1.8359 0.9184 -1.7662
15
Frame 18
C -1.2588 -0.2314 -0.6782
C -0.4195 0.1332 0.4724
C 0.7153 -0.0836 -0.4156
H -0.4913 -0.6123 1.3114
C -0.5775 1.5283 1.0198
C 1.4839 -1.3262 -0.4172
H 1.0762 0.7503 -1.0298
H -0.4084 2.2994 0.2300
H 0.1664 1.6908 1.8372
H -1.6047 1.6623 1.4368
H 0.9137 -2.1721 0.0412
H 2.4340 -1.1865 0.1628
H 1.7592 -1.6111 -1.4643
Cl -1.9643 -1.7579 -0.7403
Cl -1.8243 0.9167 -1.7661
15
Frame 19
C -1.2323 -0.2326 -0.6860
C -0.4189 0.1355 0.4828
C 0.7069 -0.0854 -0.4145
H -0.4952 -0.6111 1.3196
C -0.5824 1.5304 1.0260
C 1.4762 -1.3281 -0.4200
H 1.0722 0.7492 -1.0267
H -0.3856 2.3010 0.2423
H 0.1387 1.6873 1.8645
H -1.6201 1.6715 1.4133
H 0.9317 -2.1616 0.0893
H 2.4549 -1.1728 0.1061
H 1.6972 -1.6407 -1.4724
Cl -1.9336 -1.7624 -0.7589
Cl -1.8096 0.9199 -1.7653
15
Frame 20
C -1.2089 -0.2339 -0.6925
C -0.4193 0.1375 0.4921
C 0.6962 -0.0885 -0.4166
H -0.4997 -0.6096 1.3271
C -0.5847 1.5329 1.0310
C 1.4687 -1.3297 -0.4216
H 1.0647 0.7459 -1.0281
H -0.3778 2.3020 0.2483
H 0.1284 1.6890 1.8767
H -1.6258 1.6774 1.4079
H 0.9395 -2.1568 0.1130
H 2.4601 -1.1644 0.0770
H 1.6645 -1.6571 -1.4749
Cl -1.9067 -1.7667 -0.7750
Cl -1.7990 0.9220 -1.7642
15
Frame 21
C -1.1847 -0.2350 -0.6985
C -0.4194 0.1400 0.5017
C 0.6861 -0.0912 -0.4177
H -0.5036 -0.6076 1.3350
C -0.5875 1.5358 1.0357
C 1.4603 -1.3318 -0.4240
H 1.0606 0.7439 -1.0258
H -0.3749 2.3034 0.2526
H 0.1200 1.6933 1.8859
H -1.6313 1.6817 1.4055
H 0.9452 -2.1527 0.1335
H 2.4632 -1.1588 0.0483
H 1.6315 -1.6721 -1.4777
Cl -1.8783 -1.7714 -0.7902
Cl -1.7873 0.9225 -1.7644
15
Frame 22
C -1.1577 -0.2351 -0.7067
C -0.4200 0.1424 0.5114
C 0.6780 -0.0928 -0.4156
H -0.5104 -0.6066 1.3420
C -0.5928 1.5381 1.0414
C 1.4519 -1.3341 -0.4260
H 1.0609 0.7439 -1.0174
H -0.3689 2.3049 0.2608
H 0.1038 1.6950 1.9007
H -1.6410 1.6859 1.3973
H 0.9637 -2.1416 0.1734
H 2.4758 -1.1512 -0.0057
H 1.5733 -1.6986 -1.4786
Cl -1.8468 -1.7747 -0.8093
Cl -1.7698 0.9246 -1.7678
15
Frame 23
C -1.1349 -0.2359 -0.7114
C -0.4196 0.1446 0.5208
C 0.6670 -0.0959 -0.4185
H -0.5129 -0.6052 1.3493
C -0.5949 1.5406 1.0460
C 1.4443 -1.3356 -0.4288
H 1.0554 0.7411 -1.0178
H -0.3589 2.3059 0.2674
H 0.0907 1.6967 1.9141
H -1.6473 1.6918 1.3880
H 0.9720 -2.1363 0.1919
H 2.4770 -1.1447 -0.0340
H 1.5427 -1.7136 -1.4792
Cl -1.8200 -1.7787 -0.8216
Cl -1.7606 0.9253 -1.7661
15
Frame 24
C -1.1134 -0.2371 -0.7152
C -0.4195 0.1466 0.5304
C 0.6548 -0.0996 -0.4215
H -0.5158 -0.6037 1.3572
C -0.5960 1.5434 1.0499
C 1.4367 -1.3371 -0.4316
H 1.0482 0.7373 -1.0194
H -0.3504 2.3064 0.2721
H 0.0815 1.6998 1.9246
H -1.6513 1.6986 1.3813
H 0.9767 -2.1344 0.2025
H 2.4741 -1.1385 -0.0539
H 1.5217 -1.7234 -1.4800
Cl -1.7943 -1.7835 -0.8326
Cl -1.7531 0.9252 -1.7637
15
Frame 25
C -1.0931 -0.2376 -0.7193
C -0.4196 0.1483 0.5390
C 0.6417 -0.1039 -0.4262
H -0.5188 -0.6029 1.3638
C -0.5964 1.5457 1.0540
C 1.4301 -1.3381 -0.4334
H 1.0392 0.7322 -1.0244
H -0.3430 2.3067 0.2767
H 0.0749 1.7019 1.9335
H -1.6539 1.7044 1.3771
H 0.9808 -2.1321 0.2120
H 2.4703 -1.1310 -0.0689
H 1.5055 -1.7332 -1.4793
Cl -1.7710 -1.7870 -0.8436
Cl -1.7467 0.9264 -1.7610
15
Frame 26
C -1.0736 -0.2375 -0.7242
C -0.4202 0.1497 0.5474
C 0.6278 -0.1088 -0.4311
H -0.5232 -0.6027 1.3696
C -0.5966 1.5476 1.0580
C 1.4240 -1.3390 -0.4346
H 1.0295 0.7265 -1.0300
H -0.3371 2.3068 0.2808
H 0.0705 1.7036 1.9409
H -1.6554 1.7096 1.3752
H 0.9863 -2.1295 0.2231
H 2.4669 -1.1221 -0.0836
H 1.4906 -1.7436 -1.4773
Cl -1.7491 -1.7895 -0.8556
Cl -1.7402 0.9289 -1.7587
15
Frame 27
C -1.0551 -0.2369 -0.7296
C -0.4207 0.1507 0.5552
C 0.6130 -0.1143 -0.4372
H -0.5276 -0.6032 1.3744
C -0.5962 1.5491 1.0619
C 1.4183 -1.3398 -0.4350
H 1.0183 0.7193 -1.0386
H -0.3331 2.3067 0.2843
H 0.0687 1.7052 1.9467
H -1.6559 1.7137 1.3757
H 0.9915 -2.1268 0.2338
H 2.4623 -1.1119 -0.0941
H 1.4800 -1.7538 -1.4743
Cl -1.7291 -1.7911 -0.8681
Cl -1.7345 0.9332 -1.7553
15
Frame 28
C -1.0377 -0.2358 -0.7360
C -0.4210 0.1515 0.5626
C 0.5973 -0.1207 -0.4440
H -0.5326 -0.6044 1.3784
C -0.5953 1.5501 1.0657
C 1.4133 -1.3404 -0.4346
H 1.0055 0.7104 -1.0496
H -0.3303 2.3063 0.2873
H 0.0693 1.7065 1.9511
H -1.6550 1.7168 1.3786
H 0.9971 -2.1240 0.2447
H 2.4570 -1.0998 -0.1015
H 1.4731 -1.7641 -1.4700
Cl -1.7113 -1.7917 -0.8813
Cl -1.7293 0.9392 -1.7515
15
Frame 29
C -1.0208 -0.2354 -0.7426
C -0.4200 0.1524 0.5704
C 0.5809 -0.1275 -0.4512
H -0.5369 -0.6053 1.3827
C -0.5941 1.5513 1.0692
C 1.4083 -1.3411 -0.4345
H 0.9922 0.7008 -1.0621
H -0.3270 2.3059 0.2897
H 0.0697 1.7084 1.9555
H -1.6542 1.7201 1.3803
H 1.0006 -2.1227 0.2520
H 2.4502 -1.0879 -0.1048
H 1.4706 -1.7724 -1.4664
Cl -1.6943 -1.7928 -0.8928
Cl -1.7252 0.9462 -1.7454
15
Frame 30
C -1.0022 -0.2369 -0.7500
C -0.4128 0.1552 0.5810
C 0.5657 -0.1338 -0.4568
H -0.5379 -0.6042 1.3893
C -0.5943 1.5541 1.0720
C 1.4021 -1.3438 -0.4381
H 0.9826 0.6923 -1.0706
H -0.3196 2.3069 0.2933
H 0.0602 1.7140 1.9649
H -1.6579 1.7235 1.3715
H 1.0010 -2.1256 0.2520
H 2.4419 -1.0802 -0.1095
H 1.4677 -1.7784 -1.4682
Cl -1.6753 -1.7963 -0.8953
Cl -1.7214 0.9532 -1.7354
15
Frame 31
C -0.9888 -0.2431 -0.7544
C -0.4005 0.1597 0.5917
C 0.5609 -0.1344 -0.4567
H -0.5325 -0.5999 1.3978
C -0.5972 1.5586 1.0724
C 1.3962 -1.3478 -0.4475
H 0.9866 0.6942 -1.0639
H -0.3019 2.3094 0.2988
H 0.0334 1.7208 1.9823
H -1.6685 1.7289 1.3429
H 0.9968 -2.1326 0.2410
H 2.4365 -1.0843 -0.1206
H 1.4575 -1.7783 -1.4792
Cl -1.6582 -1.8054 -0.8794
Cl -1.7203 0.9541 -1.7253
15
Frame 32
C -0.9755 -0.2492 -0.7588
C -0.3882 0.1643 0.6023
C 0.5561 -0.1349 -0.4566
H -0.5271 -0.5956 1.4063
C -0.6001 1.5630 1.0728
C 1.3903 -1.3519 -0.4568
H 0.9907 0.6962 -1.0571
H -0.2842 2.3119 0.3044
H 0.0066 1.7277 1.9997
H -1.6791 1.7343 1.3144
H 0.9926 -2.1396 0.2300
H 2.4310 -1.0885 -0.1318
H 1.4473 -1.7783 -1.4901
Cl -1.6412 -1.8146 -0.8635
Cl -1.7192 0.9551 -1.7153
15
Frame 33
C -0.9755 -0.2492 -0.7588
C -0.3882 0.1643 0.6023
C 0.5561 -0.1349 -0.4566
H -0.5271 -0.5956 1.4063
C -0.6001 1.5630 1.0728
C 1.3903 -1.3519 -0.4568
H 0.9907 0.6962 -1.0571
H -0.2842 2.3119 0.3044
H 0.0066 1.7277 1.9997
H -1.6791 1.7343 1.3144
H 0.9926 -2.1396 0.2300
H 2.4310 -1.0885 -0.1318
H 1.4473 -1.7783 -1.4901
Cl -1.6412 -1.8146 -0.8635
Cl -1.7192 0.9551 -1.7153
