35
Frame 1
C -2.0112 -0.8412 1.4482
C -2.9861 0.0629 0.7113
H -3.9682 -0.4427 0.6193
H -3.1637 0.9806 1.3069
H -1.9201 -1.8136 0.9219
H -2.4064 -1.0835 2.4545
C -0.6414 -0.1898 1.5728
C -0.0634 0.1093 0.2036
H 0.0275 -0.8617 2.1581
H -0.7157 0.7540 2.1499
H -0.0695 -0.8121 -0.4244
C 1.3127 0.7238 0.2244
C -1.1062 1.2441 -0.5329
O -1.1903 2.3624 0.1433
C -2.4567 0.4553 -0.6544
H -2.3333 -0.4475 -1.2856
H -3.2009 1.0881 -1.1733
C 1.8264 1.0002 -1.1931
O 2.3114 -0.0140 1.0123
H 1.3211 1.6484 0.8514
H 1.9060 0.0566 -1.7702
H 2.8501 1.4209 -1.1554
C 0.8951 1.9614 -1.9136
H 1.2857 2.1577 -2.9318
H 0.8833 2.9393 -1.3916
C -0.5160 1.4118 -1.9756
H -0.5264 0.4503 -2.5264
H -1.1600 2.1004 -2.5539
S 2.9671 -1.5323 0.7229
C 1.6051 -2.6804 0.9085
H 0.7983 -2.2793 1.5521
H 1.9166 -3.6294 1.3622
H 1.1252 -2.9301 -0.0479
O 3.8975 -1.7180 1.8351
O 3.5068 -1.6518 -0.6286
35
Frame 2
C -2.0143 -0.8418 1.4380
C -2.9876 0.0679 0.7058
H -3.9719 -0.4342 0.6163
H -3.1602 0.9848 1.3042
H -1.9246 -1.8112 0.9059
H -2.4123 -1.0894 2.4420
C -0.6429 -0.1949 1.5703
C -0.0529 0.0919 0.2083
H 0.0175 -0.8653 2.1674
H -0.7187 0.7527 2.1409
H -0.0678 -0.8208 -0.4280
C 1.3105 0.7196 0.2236
C -1.1299 1.2659 -0.5516
O -1.2067 2.3750 0.1353
C -2.4650 0.4611 -0.6626
H -2.3309 -0.4430 -1.2898
H -3.2194 1.0810 -1.1833
C 1.8214 1.0022 -1.1920
O 2.3322 -0.0231 1.0106
H 1.3227 1.6367 0.8598
H 1.8982 0.0614 -1.7742
H 2.8460 1.4207 -1.1540
C 0.8919 1.9700 -1.9064
H 1.2861 2.1749 -2.9216
H 0.8796 2.9436 -1.3763
C -0.5199 1.4231 -1.9811
H -0.5253 0.4575 -2.5247
H -1.1547 2.1086 -2.5734
S 2.9783 -1.5410 0.7157
C 1.6182 -2.6856 0.9378
H 0.8180 -2.2718 1.5814
H 1.9339 -3.6261 1.4059
H 1.1288 -2.9531 -0.0091
O 3.9348 -1.7272 1.8070
O 3.4871 -1.6699 -0.6482
35
Frame 3
C -2.0179 -0.8419 1.4285
C -2.9891 0.0733 0.7004
H -3.9758 -0.4246 0.6136
H -3.1564 0.9899 1.3007
H -1.9304 -1.8088 0.8916
H -2.4188 -1.0933 2.4305
C -0.6443 -0.2006 1.5678
C -0.0426 0.0745 0.2128
H 0.0072 -0.8710 2.1752
H -0.7200 0.7501 2.1331
H -0.0665 -0.8292 -0.4320
C 1.3076 0.7154 0.2226
C -1.1538 1.2877 -0.5705
O -1.2236 2.3872 0.1272
C -2.4728 0.4658 -0.6708
H -2.3263 -0.4402 -1.2925
H -3.2370 1.0711 -1.1951
C 1.8161 1.0041 -1.1910
O 2.3532 -0.0317 1.0079
H 1.3243 1.6247 0.8683
H 1.8901 0.0664 -1.7782
H 2.8417 1.4204 -1.1525
C 0.8888 1.9786 -1.8995
H 1.2865 2.1914 -2.9117
H 0.8761 2.9480 -1.3617
C -0.5238 1.4347 -1.9865
H -0.5250 0.4655 -2.5237
H -1.1494 2.1177 -2.5918
S 2.9894 -1.5491 0.7096
C 1.6315 -2.6905 0.9665
H 0.8390 -2.2659 1.6126
H 1.9520 -3.6241 1.4447
H 1.1311 -2.9713 0.0292
O 3.9709 -1.7364 1.7805
O 3.4681 -1.6882 -0.6659
35
Frame 4
C -2.0218 -0.8417 1.4188
C -2.9908 0.0788 0.6949
H -3.9798 -0.4151 0.6110
H -3.1529 0.9954 1.2967
H -1.9367 -1.8060 0.8771
H -2.4255 -1.0970 2.4188
C -0.6458 -0.2063 1.5648
C -0.0325 0.0578 0.2172
H -0.0032 -0.8774 2.1820
H -0.7208 0.7469 2.1262
H -0.0661 -0.8362 -0.4369
C 1.3047 0.7112 0.2215
C -1.1781 1.3096 -0.5901
O -1.2416 2.3995 0.1182
C -2.4805 0.4700 -0.6793
H -2.3212 -0.4377 -1.2950
H -3.2544 1.0603 -1.2070
C 1.8108 1.0067 -1.1900
O 2.3745 -0.0406 1.0040
H 1.3272 1.6119 0.8775
H 1.8824 0.0720 -1.7824
H 2.8373 1.4210 -1.1509
C 0.8854 1.9878 -1.8920
H 1.2867 2.2097 -2.9009
H 0.8717 2.9524 -1.3457
C -0.5276 1.4463 -1.9920
H -0.5243 0.4734 -2.5226
H -1.1436 2.1268 -2.6105
S 3.0001 -1.5578 0.7026
C 1.6455 -2.6953 0.9964
H 0.8609 -2.2594 1.6445
H 1.9721 -3.6207 1.4858
H 1.1334 -2.9910 0.0702
O 4.0074 -1.7472 1.7515
O 3.4471 -1.7082 -0.6843
35
Frame 5
C -2.0260 -0.8416 1.4088
C -2.9927 0.0846 0.6892
H -3.9841 -0.4051 0.6079
H -3.1497 1.0006 1.2931
H -1.9436 -1.8033 0.8622
H -2.4326 -1.1006 2.4068
C -0.6476 -0.2126 1.5613
C -0.0229 0.0412 0.2210
H -0.0143 -0.8852 2.1872
H -0.7212 0.7425 2.1197
H -0.0674 -0.8422 -0.4434
C 1.3012 0.7067 0.2201
C -1.2028 1.3322 -0.6097
O -1.2591 2.4119 0.1098
C -2.4882 0.4748 -0.6876
H -2.3157 -0.4343 -1.2976
H -3.2713 1.0500 -1.2189
C 1.8051 1.0092 -1.1893
O 2.3958 -0.0496 0.9986
H 1.3307 1.5983 0.8868
H 1.8741 0.0777 -1.7871
H 2.8326 1.4212 -1.1496
C 0.8819 1.9973 -1.8845
H 1.2864 2.2281 -2.8901
H 0.8676 2.9569 -1.3298
C -0.5315 1.4583 -1.9973
H -0.5239 0.4816 -2.5208
H -1.1381 2.1359 -2.6288
S 3.0110 -1.5664 0.6959
C 1.6606 -2.7001 1.0274
H 0.8847 -2.2530 1.6776
H 1.9943 -3.6169 1.5280
H 1.1370 -3.0108 0.1128
O 4.0437 -1.7578 1.7222
O 3.4259 -1.7295 -0.7018
35
Frame 6
C -2.0311 -0.8422 1.3977
C -2.9950 0.0913 0.6840
H -3.9891 -0.3933 0.6049
H -3.1459 1.0063 1.2910
H -1.9524 -1.8006 0.8450
H -2.4405 -1.1057 2.3934
C -0.6499 -0.2208 1.5567
C -0.0138 0.0237 0.2239
H -0.0262 -0.8961 2.1902
H -0.7211 0.7356 2.1135
H -0.0703 -0.8474 -0.4523
C 1.2967 0.7018 0.2179
C -1.2273 1.3553 -0.6288
O -1.2748 2.4242 0.1024
C -2.4964 0.4815 -0.6952
H -2.3120 -0.4283 -1.3005
H -3.2879 1.0431 -1.2292
C 1.7988 1.0112 -1.1892
O 2.4167 -0.0584 0.9920
H 1.3338 1.5838 0.8956
H 1.8656 0.0828 -1.7921
H 2.8272 1.4211 -1.1487
C 0.8780 2.0061 -1.8779
H 1.2853 2.2450 -2.8806
H 0.8639 2.9613 -1.3156
C -0.5358 1.4704 -2.0023
H -0.5248 0.4897 -2.5184
H -1.1332 2.1448 -2.6462
S 3.0230 -1.5741 0.6905
C 1.6781 -2.7047 1.0594
H 0.9114 -2.2472 1.7132
H 2.0197 -3.6131 1.5696
H 1.1417 -3.0290 0.1570
O 4.0798 -1.7670 1.6954
O 3.4078 -1.7512 -0.7165
35
Frame 7
C -2.0375 -0.8436 1.3849
C -2.9978 0.0993 0.6790
H -3.9955 -0.3785 0.6022
H -3.1409 1.0127 1.2904
H -1.9635 -1.7978 0.8244
H -2.4495 -1.1131 2.3780
C -0.6529 -0.2311 1.5509
C -0.0056 0.0054 0.2258
H -0.0391 -0.9106 2.1903
H -0.7209 0.7254 2.1079
H -0.0756 -0.8514 -0.4642
C 1.2911 0.6962 0.2151
C -1.2518 1.3793 -0.6477
O -1.2887 2.4367 0.0959
C -2.5056 0.4904 -0.7024
H -2.3106 -0.4196 -1.3042
H -3.3048 1.0401 -1.2379
C 1.7920 1.0125 -1.1895
O 2.4369 -0.0670 0.9843
H 1.3366 1.5680 0.9043
H 1.8567 0.0873 -1.7975
H 2.8213 1.4201 -1.1479
C 0.8740 2.0144 -1.8718
H 1.2838 2.2607 -2.8717
H 0.8607 2.9653 -1.3024
C -0.5407 1.4827 -2.0070
H -0.5271 0.4983 -2.5156
H -1.1287 2.1544 -2.6627
S 3.0361 -1.5811 0.6863
C 1.6988 -2.7093 1.0941
H 0.9411 -2.2416 1.7506
H 2.0498 -3.6083 1.6142
H 1.1503 -3.0484 0.2049
O 4.1176 -1.7741 1.6686
O 3.3900 -1.7738 -0.7295
35
Frame 8
C -2.0456 -0.8454 1.3706
C -3.0013 0.1089 0.6741
H -4.0031 -0.3607 0.5996
H -3.1351 1.0201 1.2908
H -1.9775 -1.7947 0.8012
H -2.4602 -1.1215 2.3609
C -0.6569 -0.2437 1.5437
C 0.0015 -0.0137 0.2266
H -0.0534 -0.9293 2.1872
H -0.7201 0.7119 2.1030
H -0.0839 -0.8539 -0.4791
C 1.2842 0.6896 0.2114
C -1.2764 1.4044 -0.6662
O -1.3010 2.4492 0.0907
C -2.5155 0.5015 -0.7093
H -2.3111 -0.4082 -1.3085
H -3.3218 1.0407 -1.2456
C 1.7844 1.0129 -1.1905
O 2.4560 -0.0761 0.9757
H 1.3391 1.5504 0.9126
H 1.8466 0.0909 -1.8036
H 2.8147 1.4177 -1.1476
C 0.8697 2.0225 -1.8661
H 1.2818 2.2758 -2.8633
H 0.8583 2.9691 -1.2895
C -0.5461 1.4961 -2.0115
H -0.5312 0.5081 -2.5130
H -1.1248 2.1657 -2.6781
S 3.0507 -1.5873 0.6829
C 1.7236 -2.7146 1.1317
H 0.9728 -2.2360 1.7879
H 2.0855 -3.6012 1.6650
H 1.1655 -3.0728 0.2563
O 4.1576 -1.7787 1.6414
O 3.3729 -1.7977 -0.7410
35
Frame 9
C -2.0565 -0.8475 1.3534
C -3.0061 0.1210 0.6685
H -4.0127 -0.3386 0.5964
H -3.1285 1.0291 1.2921
H -1.9964 -1.7909 0.7736
H -2.4739 -1.1309 2.3405
C -0.6625 -0.2600 1.5342
C 0.0065 -0.0339 0.2251
H -0.0700 -0.9549 2.1786
H -0.7187 0.6930 2.0989
H -0.0968 -0.8540 -0.4989
C 1.2753 0.6813 0.2061
C -1.3011 1.4318 -0.6839
O -1.3117 2.4626 0.0880
C -2.5268 0.5167 -0.7164
H -2.3147 -0.3918 -1.3148
H -3.3394 1.0477 -1.2521
C 1.7751 1.0124 -1.1928
O 2.4727 -0.0872 0.9649
H 1.3415 1.5296 0.9205
H 1.8337 0.0942 -1.8119
H 2.8070 1.4131 -1.1482
C 0.8650 2.0316 -1.8604
H 1.2792 2.2922 -2.8548
H 0.8571 2.9734 -1.2759
C -0.5529 1.5129 -2.0157
H -0.5385 0.5220 -2.5118
H -1.1219 2.1822 -2.6912
S 3.0670 -1.5938 0.6791
C 1.7566 -2.7233 1.1766
H 1.0048 -2.2313 1.8211
H 2.1337 -3.5866 1.7371
H 1.1980 -3.1181 0.3176
O 4.2030 -1.7784 1.6098
O 3.3527 -1.8256 -0.7529
35
Frame 10
C -2.0666 -0.8493 1.3391
C -3.0118 0.1294 0.6631
H -4.0211 -0.3239 0.5898
H -3.1280 1.0337 1.2932
H -2.0117 -1.7880 0.7515
H -2.4855 -1.1387 2.3239
C -0.6694 -0.2710 1.5247
C 0.0036 -0.0423 0.2192
H -0.0825 -0.9729 2.1665
H -0.7209 0.6787 2.0952
H -0.1089 -0.8506 -0.5152
C 1.2694 0.6739 0.2016
C -1.3101 1.4472 -0.6874
O -1.3130 2.4694 0.0940
C -2.5339 0.5314 -0.7205
H -2.3216 -0.3744 -1.3229
H -3.3471 1.0644 -1.2534
C 1.7695 1.0123 -1.1949
O 2.4739 -0.1006 0.9557
H 1.3423 1.5143 0.9242
H 1.8236 0.0980 -1.8202
H 2.8031 1.4083 -1.1487
C 0.8636 2.0404 -1.8545
H 1.2788 2.3069 -2.8469
H 0.8598 2.9777 -1.2630
C -0.5564 1.5289 -2.0148
H -0.5453 0.5395 -2.5139
H -1.1207 2.2030 -2.6896
S 3.0717 -1.6026 0.6658
C 1.7888 -2.7373 1.2168
H 1.0036 -2.2338 1.8026
H 2.1784 -3.5349 1.8458
H 1.2723 -3.2141 0.3845
O 4.2383 -1.7724 1.5602
O 3.3137 -1.8503 -0.7712
35
Frame 11
C -2.0768 -0.8512 1.3249
C -3.0176 0.1378 0.6576
H -4.0296 -0.3092 0.5832
H -3.1276 1.0382 1.2943
H -2.0270 -1.7852 0.7293
H -2.4970 -1.1465 2.3072
C -0.6764 -0.2821 1.5151
C 0.0008 -0.0507 0.2134
H -0.0951 -0.9910 2.1543
H -0.7231 0.6645 2.0915
H -0.1211 -0.8472 -0.5315
C 1.2636 0.6665 0.1971
C -1.3191 1.4626 -0.6910
O -1.3144 2.4762 0.1001
C -2.5409 0.5461 -0.7247
H -2.3286 -0.3570 -1.3310
H -3.3548 1.0810 -1.2548
C 1.7638 1.0121 -1.1971
O 2.4751 -0.1139 0.9465
H 1.3431 1.4989 0.9278
H 1.8136 0.1018 -1.8284
H 2.7992 1.4035 -1.1491
C 0.8623 2.0491 -1.8486
H 1.2784 2.3215 -2.8389
H 0.8624 2.9819 -1.2500
C -0.5599 1.5450 -2.0139
H -0.5520 0.5570 -2.5160
H -1.1195 2.2238 -2.6880
S 3.0765 -1.6115 0.6526
C 1.8211 -2.7512 1.2571
H 1.0024 -2.2363 1.7841
H 2.2230 -3.4833 1.9544
H 1.3467 -3.3100 0.4515
O 4.2735 -1.7664 1.5107
O 3.2748 -1.8751 -0.7896
35
Frame 12
C -2.0869 -0.8530 1.3106
C -3.0233 0.1462 0.6522
H -4.0380 -0.2945 0.5766
H -3.1271 1.0428 1.2954
H -2.0423 -1.7823 0.7072
H -2.5086 -1.1543 2.2906
C -0.6833 -0.2931 1.5056
C -0.0021 -0.0591 0.2075
H -0.1076 -1.0090 2.1422
H -0.7253 0.6502 2.0878
H -0.1332 -0.8438 -0.5478
C 1.2577 0.6591 0.1926
C -1.3281 1.4780 -0.6945
O -1.3157 2.4830 0.1061
C -2.5480 0.5608 -0.7288
H -2.3355 -0.3396 -1.3391
H -3.3625 1.0977 -1.2561
C 1.7582 1.0120 -1.1992
O 2.4763 -0.1273 0.9373
H 1.3439 1.4836 0.9315
H 1.8035 0.1056 -1.8367
H 2.7953 1.3987 -1.1496
C 0.8609 2.0579 -1.8427
H 1.2780 2.3362 -2.8310
H 0.8651 2.9862 -1.2371
C -0.5634 1.5610 -2.0130
H -0.5588 0.5745 -2.5181
H -1.1183 2.2446 -2.6864
S 3.0812 -1.6203 0.6393
C 1.8533 -2.7652 1.2973
H 1.0012 -2.2388 1.7656
H 2.2677 -3.4316 2.0631
H 1.4210 -3.4060 0.5184
O 4.3088 -1.7604 1.4611
O 3.2358 -1.8998 -0.8079
35
Frame 13
C -2.1021 -0.8575 1.2858
C -3.0291 0.1628 0.6466
H -4.0507 -0.2627 0.5748
H -3.1155 1.0532 1.3009
H -2.0692 -1.7766 0.6665
H -2.5269 -1.1705 2.2609
C -0.6915 -0.3185 1.4901
C -0.0009 -0.0819 0.2000
H -0.1278 -1.0500 2.1199
H -0.7224 0.6176 2.0845
H -0.1540 -0.8387 -0.5774
C 1.2459 0.6461 0.1835
C -1.3528 1.5107 -0.7095
O -1.3230 2.4983 0.1079
C -2.5624 0.5848 -0.7352
H -2.3460 -0.3126 -1.3488
H -3.3825 1.1177 -1.2581
C 1.7457 1.0090 -1.2046
O 2.4898 -0.1442 0.9214
H 1.3468 1.4544 0.9375
H 1.7843 0.1082 -1.8504
H 2.7854 1.3885 -1.1537
C 0.8553 2.0686 -1.8358
H 1.2746 2.3560 -2.8207
H 0.8662 2.9897 -1.2195
C -0.5725 1.5846 -2.0159
H -0.5724 0.5971 -2.5192
H -1.1165 2.2720 -2.6945
S 3.0984 -1.6314 0.6347
C 1.9018 -2.7744 1.3570
H 1.0286 -2.2470 1.7825
H 2.3309 -3.3744 2.1680
H 1.5005 -3.4787 0.6179
O 4.3575 -1.7566 1.4164
O 3.2065 -1.9435 -0.8135
35
Frame 14
C -2.1131 -0.8593 1.2683
C -3.0325 0.1768 0.6433
H -4.0594 -0.2365 0.5767
H -3.1040 1.0633 1.3047
H -2.0892 -1.7707 0.6372
H -2.5413 -1.1805 2.2392
C -0.6968 -0.3382 1.4806
C 0.0032 -0.1018 0.1978
H -0.1437 -1.0823 2.1052
H -0.7186 0.5924 2.0841
H -0.1704 -0.8332 -0.5980
C 1.2365 0.6365 0.1778
C -1.3775 1.5399 -0.7258
O -1.3358 2.5147 0.1021
C -2.5747 0.6019 -0.7409
H -2.3513 -0.2942 -1.3540
H -3.4012 1.1268 -1.2621
C 1.7348 1.0072 -1.2075
O 2.5056 -0.1580 0.9080
H 1.3535 1.4289 0.9453
H 1.7691 0.1106 -1.8593
H 2.7762 1.3819 -1.1559
C 0.8492 2.0764 -1.8296
H 1.2710 2.3717 -2.8111
H 0.8633 2.9917 -1.2047
C -0.5807 1.6012 -2.0198
H -0.5822 0.6106 -2.5174
H -1.1145 2.2881 -2.7071
S 3.1157 -1.6404 0.6340
C 1.9373 -2.7791 1.3972
H 1.0494 -2.2519 1.7910
H 2.3727 -3.3326 2.2374
H 1.5593 -3.5241 0.6865
O 4.3943 -1.7600 1.3906
O 3.1958 -1.9780 -0.8134
35
Frame 15
C -2.1265 -0.8623 1.2481
C -3.0348 0.1947 0.6423
H -4.0689 -0.2015 0.5835
H -3.0854 1.0758 1.3126
H -2.1152 -1.7635 0.6022
H -2.5580 -1.1938 2.2141
C -0.7029 -0.3646 1.4686
C 0.0047 -0.1243 0.1923
H -0.1611 -1.1257 2.0826
H -0.7119 0.5571 2.0856
H -0.1886 -0.8297 -0.6214
C 1.2239 0.6248 0.1695
C -1.4012 1.5716 -0.7411
O -1.3460 2.5343 0.0958
C -2.5886 0.6243 -0.7446
H -2.3620 -0.2697 -1.3596
H -3.4217 1.1437 -1.2608
C 1.7218 1.0028 -1.2125
O 2.5178 -0.1716 0.8949
H 1.3568 1.4006 0.9504
H 1.7509 0.1107 -1.8705
H 2.7653 1.3715 -1.1596
C 0.8425 2.0829 -1.8258
H 1.2670 2.3844 -2.8042
H 0.8621 2.9927 -1.1931
C -0.5904 1.6195 -2.0246
H -0.5964 0.6263 -2.5172
H -1.1136 2.3076 -2.7190
S 3.1363 -1.6469 0.6383
C 1.9779 -2.7842 1.4391
H 1.0697 -2.2646 1.7940
H 2.4159 -3.2828 2.3113
H 1.6345 -3.5736 0.7601
O 4.4307 -1.7545 1.3755
O 3.1958 -2.0124 -0.8069
35
Frame 16
C -2.1381 -0.8633 1.2325
C -3.0357 0.2125 0.6435
H -4.0763 -0.1678 0.5942
H -3.0658 1.0894 1.3205
H -2.1389 -1.7555 0.5742
H -2.5730 -1.2025 2.1943
C -0.7075 -0.3885 1.4598
C 0.0073 -0.1469 0.1890
H -0.1765 -1.1646 2.0643
H -0.7041 0.5257 2.0879
H -0.2044 -0.8291 -0.6390
C 1.2122 0.6132 0.1621
C -1.4246 1.6012 -0.7564
O -1.3581 2.5547 0.0861
C -2.6019 0.6440 -0.7472
H -2.3715 -0.2491 -1.3623
H -3.4419 1.1562 -1.2592
C 1.7085 0.9963 -1.2177
O 2.5310 -0.1819 0.8854
H 1.3606 1.3743 0.9539
H 1.7317 0.1078 -1.8809
H 2.7541 1.3586 -1.1650
C 0.8351 2.0862 -1.8230
H 1.2624 2.3932 -2.7984
H 0.8596 2.9907 -1.1832
C -0.6007 1.6339 -2.0301
H -0.6110 0.6375 -2.5161
H -1.1130 2.3216 -2.7331
S 3.1611 -1.6494 0.6493
C 2.0112 -2.7871 1.4666
H 1.0882 -2.2743 1.7912
H 2.4451 -3.2504 2.3597
H 1.6945 -3.6025 0.8062
O 4.4608 -1.7476 1.3841
O 3.2197 -2.0368 -0.7930
35
Frame 17
C -2.1474 -0.8628 1.2201
C -3.0347 0.2304 0.6469
H -4.0815 -0.1339 0.6094
H -3.0433 1.1041 1.3289
H -2.1602 -1.7467 0.5509
H -2.5855 -1.2086 2.1782
C -0.7104 -0.4105 1.4532
C 0.0106 -0.1680 0.1868
H -0.1893 -1.2006 2.0481
H -0.6947 0.4965 2.0915
H -0.2196 -0.8282 -0.6535
C 1.2013 0.6022 0.1550
C -1.4486 1.6299 -0.7727
O -1.3744 2.5785 0.0707
C -2.6155 0.6622 -0.7487
H -2.3818 -0.2306 -1.3633
H -3.4636 1.1658 -1.2556
C 1.6949 0.9892 -1.2233
O 2.5446 -0.1913 0.8770
H 1.3664 1.3489 0.9564
H 1.7120 0.1042 -1.8912
H 2.7427 1.3456 -1.1719
C 0.8264 2.0878 -1.8210
H 1.2568 2.4008 -2.7931
H 0.8549 2.9871 -1.1740
C -0.6117 1.6457 -2.0367
H -0.6258 0.6452 -2.5144
H -1.1127 2.3314 -2.7494
S 3.1890 -1.6504 0.6655
C 2.0391 -2.7907 1.4838
H 1.1010 -2.2859 1.7753
H 2.4606 -3.2256 2.3967
H 1.7520 -3.6264 0.8355
O 4.4853 -1.7388 1.4124
O 3.2627 -2.0563 -0.7735
35
Frame 18
C -2.1576 -0.8625 1.2071
C -3.0318 0.2509 0.6524
H -4.0856 -0.0939 0.6296
H -3.0141 1.1205 1.3394
H -2.1846 -1.7365 0.5253
H -2.5992 -1.2158 2.1609
C -0.7135 -0.4363 1.4457
C 0.0127 -0.1909 0.1833
H -0.2033 -1.2424 2.0282
H -0.6831 0.4616 2.0961
H -0.2324 -0.8323 -0.6672
C 1.1883 0.5906 0.1470
C -1.4717 1.6595 -0.7885
O -1.3908 2.6056 0.0529
C -2.6291 0.6824 -0.7486
H -2.3934 -0.2101 -1.3630
H -3.4859 1.1775 -1.2493
C 1.6802 0.9809 -1.2297
O 2.5560 -0.1994 0.8695
H 1.3687 1.3235 0.9572
H 1.6916 0.0991 -1.9019
H 2.7300 1.3313 -1.1788
C 0.8173 2.0880 -1.8212
H 1.2507 2.4046 -2.7909
H 0.8506 2.9832 -1.1688
C -0.6238 1.6572 -2.0440
H -0.6433 0.6526 -2.5132
H -1.1135 2.3413 -2.7662
S 3.2187 -1.6480 0.6859
C 2.0675 -2.7946 1.4987
H 1.1164 -2.2995 1.7627
H 2.4764 -3.2086 2.4270
H 1.8075 -3.6447 0.8580
O 4.5064 -1.7230 1.4532
O 3.3176 -2.0717 -0.7490
35
Frame 19
C -2.1696 -0.8632 1.1935
C -3.0273 0.2736 0.6600
H -4.0885 -0.0484 0.6533
H -2.9796 1.1375 1.3527
H -2.2144 -1.7259 0.4984
H -2.6143 -1.2235 2.1432
C -0.7173 -0.4677 1.4353
C 0.0128 -0.2191 0.1757
H -0.2190 -1.2914 2.0030
H -0.6692 0.4196 2.0989
H -0.2427 -0.8473 -0.6817
C 1.1714 0.5761 0.1353
C -1.4923 1.6907 -0.8016
O -1.4042 2.6353 0.0366
C -2.6415 0.7058 -0.7460
H -2.4051 -0.1860 -1.3613
H -3.5064 1.1941 -1.2393
C 1.6634 0.9685 -1.2393
O 2.5630 -0.2048 0.8651
H 1.3637 1.2977 0.9525
H 1.6669 0.0905 -1.9164
H 2.7161 1.3100 -1.1884
C 0.8087 2.0863 -1.8236
H 1.2448 2.4052 -2.7913
H 0.8500 2.9772 -1.1659
C -0.6364 1.6702 -2.0510
H -0.6644 0.6620 -2.5122
H -1.1150 2.3538 -2.7810
S 3.2504 -1.6396 0.7127
C 2.0972 -2.7968 1.5126
H 1.1361 -2.3114 1.7563
H 2.4949 -3.2000 2.4505
H 1.8593 -3.6539 0.8728
O 4.5246 -1.6957 1.5073
O 3.3840 -2.0793 -0.7167
35
Frame 20
C -2.1807 -0.8642 1.1794
C -3.0209 0.2962 0.6682
H -4.0889 -0.0024 0.6789
H -2.9419 1.1534 1.3663
H -2.2438 -1.7149 0.4710
H -2.6285 -1.2314 2.1250
C -0.7205 -0.5007 1.4234
C 0.0124 -0.2481 0.1661
H -0.2344 -1.3420 1.9753
H -0.6539 0.3751 2.1004
H -0.2528 -0.8643 -0.6973
C 1.1541 0.5600 0.1219
C -1.5125 1.7225 -0.8144
O -1.4199 2.6680 0.0181
C -2.6537 0.7299 -0.7428
H -2.4185 -0.1608 -1.3604
H -3.5272 1.2125 -1.2266
C 1.6458 0.9554 -1.2506
O 2.5692 -0.2109 0.8601
H 1.3580 1.2706 0.9456
H 1.6402 0.0820 -1.9336
H 2.7017 1.2870 -1.2001
C 0.7996 2.0850 -1.8257
H 1.2384 2.4081 -2.7908
H 0.8490 2.9703 -1.1609
C -0.6495 1.6842 -2.0579
H -0.6864 0.6729 -2.5120
H -1.1164 2.3677 -2.7953
S 3.2815 -1.6311 0.7414
C 2.1271 -2.7991 1.5281
H 1.1558 -2.3243 1.7504
H 2.5125 -3.1907 2.4758
H 1.9125 -3.6632 0.8896
O 4.5402 -1.6656 1.5643
O 3.4527 -2.0872 -0.6806
35
Frame 21
C -2.1908 -0.8658 1.1644
C -3.0120 0.3183 0.6768
H -4.0863 0.0444 0.7071
H -2.8997 1.1680 1.3794
H -2.2729 -1.7035 0.4426
H -2.6416 -1.2400 2.1058
C -0.7231 -0.5352 1.4094
C 0.0116 -0.2775 0.1538
H -0.2493 -1.3939 1.9442
H -0.6375 0.3278 2.1002
H -0.2615 -0.8834 -0.7146
C 1.1365 0.5430 0.1070
C -1.5328 1.7552 -0.8268
O -1.4396 2.7048 -0.0031
C -2.6650 0.7537 -0.7392
H -2.4296 -0.1356 -1.3590
H -3.5478 1.2288 -1.2133
C 1.6279 0.9434 -1.2629
O 2.5747 -0.2186 0.8529
H 1.3514 1.2421 0.9373
H 1.6133 0.0759 -1.9531
H 2.6868 1.2651 -1.2121
C 0.7899 2.0853 -1.8268
H 1.2315 2.4140 -2.7886
H 0.8468 2.9636 -1.1536
C -0.6627 1.6992 -2.0644
H -0.7085 0.6850 -2.5113
H -1.1178 2.3825 -2.8093
S 3.3106 -1.6237 0.7697
C 2.1563 -2.8009 1.5471
H 1.1751 -2.3371 1.7479
H 2.5302 -3.1794 2.5046
H 1.9648 -3.6729 0.9121
O 4.5536 -1.6342 1.6189
O 3.5175 -2.0984 -0.6430
35
Frame 22
C -2.1995 -0.8679 1.1491
C -3.0010 0.3393 0.6848
H -4.0806 0.0911 0.7365
H -2.8539 1.1814 1.3903
H -2.3003 -1.6924 0.4145
H -2.6534 -1.2490 2.0863
C -0.7249 -0.5696 1.3946
C 0.0108 -0.3044 0.1406
H -0.2627 -1.4455 1.9113
H -0.6210 0.2797 2.0998
H -0.2692 -0.9007 -0.7327
C 1.1197 0.5268 0.0924
C -1.5547 1.7884 -0.8408
O -1.4669 2.7456 -0.0295
C -2.6748 0.7752 -0.7366
H -2.4360 -0.1128 -1.3572
H -3.5681 1.2387 -1.2021
C 1.6106 0.9348 -1.2743
O 2.5802 -0.2295 0.8432
H 1.3466 1.2131 0.9300
H 1.5884 0.0742 -1.9728
H 2.6720 1.2481 -1.2226
C 0.7795 2.0883 -1.8256
H 1.2247 2.4255 -2.7828
H 0.8415 2.9584 -1.1422
C -0.6757 1.7152 -2.0710
H -0.7287 0.6980 -2.5105
H -1.1184 2.3974 -2.8243
S 3.3361 -1.6207 0.7933
C 2.1845 -2.8034 1.5706
H 1.1941 -2.3506 1.7493
H 2.5486 -3.1620 2.5394
H 2.0157 -3.6875 0.9462
O 4.5669 -1.6071 1.6619
O 3.5701 -2.1162 -0.6091
35
Frame 23
C -2.2069 -0.8693 1.1368
C -2.9875 0.3596 0.6926
H -4.0715 0.1372 0.7665
H -2.8056 1.1948 1.3983
H -2.3263 -1.6819 0.3919
H -2.6641 -1.2542 2.0708
C -0.7259 -0.6032 1.3813
C 0.0096 -0.3303 0.1282
H -0.2753 -1.4954 1.8797
H -0.6037 0.2320 2.1004
H -0.2751 -0.9197 -0.7485
C 1.1026 0.5114 0.0788
C -1.5769 1.8211 -0.8564
O -1.4997 2.7890 -0.0612
C -2.6820 0.7932 -0.7347
H -2.4367 -0.0940 -1.3541
H -3.5864 1.2415 -1.1933
C 1.5932 0.9275 -1.2844
O 2.5848 -0.2409 0.8340
H 1.3412 1.1847 0.9234
H 1.5638 0.0740 -1.9914
H 2.6569 1.2325 -1.2314
C 0.7690 2.0925 -1.8229
H 1.2190 2.4395 -2.7743
H 0.8341 2.9534 -1.1283
C -0.6879 1.7312 -2.0783
H -0.7468 0.7110 -2.5104
H -1.1175 2.4114 -2.8407
S 3.3589 -1.6183 0.8149
C 2.2095 -2.8060 1.5916
H 1.2102 -2.3643 1.7470
H 2.5625 -3.1441 2.5718
H 2.0637 -3.7019 0.9783
O 4.5778 -1.5819 1.7013
O 3.6190 -2.1322 -0.5773
35
Frame 24
C -2.2146 -0.8692 1.1287
C -2.9697 0.3825 0.7030
H -4.0574 0.1904 0.8018
H -2.7487 1.2104 1.4060
H -2.3567 -1.6706 0.3756
H -2.6749 -1.2541 2.0612
C -0.7269 -0.6404 1.3685
C 0.0064 -0.3579 0.1156
H -0.2895 -1.5510 1.8442
H -0.5824 0.1768 2.1036
H -0.2831 -0.9410 -0.7642
C 1.0825 0.4949 0.0646
C -1.5982 1.8534 -0.8738
O -1.5329 2.8337 -0.0972
C -2.6861 0.8100 -0.7313
H -2.4327 -0.0776 -1.3470
H -3.6021 1.2403 -1.1838
C 1.5736 0.9174 -1.2954
O 2.5859 -0.2486 0.8297
H 1.3307 1.1579 0.9144
H 1.5358 0.0710 -2.0104
H 2.6402 1.2121 -1.2411
C 0.7584 2.0944 -1.8218
H 1.2145 2.4504 -2.7670
H 0.8272 2.9461 -1.1163
C -0.7002 1.7470 -2.0880
H -0.7665 0.7247 -2.5141
H -1.1154 2.4269 -2.8585
S 3.3816 -1.6089 0.8431
C 2.2327 -2.8091 1.6053
H 1.2242 -2.3817 1.7373
H 2.5705 -3.1361 2.5945
H 2.1132 -3.7108 0.9950
O 4.5805 -1.5488 1.7561
O 3.6800 -2.1344 -0.5381
35
Frame 25
C -2.2211 -0.8692 1.1209
C -2.9492 0.4051 0.7144
H -4.0393 0.2450 0.8406
H -2.6868 1.2249 1.4128
H -2.3866 -1.6586 0.3599
H -2.6841 -1.2541 2.0520
C -0.7269 -0.6781 1.3542
C 0.0034 -0.3860 0.1010
H -0.3035 -1.6065 1.8073
H -0.5597 0.1211 2.1043
H -0.2897 -0.9643 -0.7810
C 1.0625 0.4779 0.0489
C -1.6199 1.8854 -0.8909
O -1.5701 2.8796 -0.1354
C -2.6890 0.8257 -0.7270
H -2.4267 -0.0619 -1.3391
H -3.6171 1.2363 -1.1729
C 1.5539 0.9076 -1.3077
O 2.5869 -0.2568 0.8239
H 1.3200 1.1303 0.9042
H 1.5074 0.0688 -2.0311
H 2.6232 1.1921 -1.2523
C 0.7474 2.0970 -1.8204
H 1.2091 2.4630 -2.7590
H 0.8194 2.9384 -1.1030
C -0.7128 1.7631 -2.0971
H -0.7871 0.7390 -2.5181
H -1.1142 2.4430 -2.8749
S 3.4033 -1.5998 0.8725
C 2.2536 -2.8116 1.6186
H 1.2367 -2.3977 1.7262
H 2.5746 -3.1277 2.6168
H 2.1601 -3.7188 1.0120
O 4.5787 -1.5152 1.8150
O 3.7436 -2.1368 -0.4956
35
Frame 26
C -2.2262 -0.8691 1.1144
C -2.9253 0.4274 0.7266
H -4.0159 0.3010 0.8819
H -2.6198 1.2380 1.4181
H -2.4161 -1.6463 0.3468
H -2.6914 -1.2527 2.0449
C -0.7264 -0.7161 1.3394
C 0.0002 -0.4144 0.0854
H -0.3169 -1.6611 1.7699
H -0.5364 0.0645 2.1036
H -0.2957 -0.9894 -0.7985
C 1.0421 0.4601 0.0323
C -1.6419 1.9170 -0.9083
O -1.6093 2.9255 -0.1758
C -2.6904 0.8402 -0.7219
H -2.4185 -0.0473 -1.3305
H -3.6312 1.2290 -1.1604
C 1.5337 0.8982 -1.3206
O 2.5869 -0.2651 0.8187
H 1.3084 1.1024 0.8926
H 1.4788 0.0677 -2.0529
H 2.6056 1.1726 -1.2637
C 0.7357 2.0998 -1.8188
H 1.2035 2.4763 -2.7502
H 0.8103 2.9305 -1.0892
C -0.7258 1.7795 -2.1065
H -0.8074 0.7538 -2.5230
H -1.1133 2.4594 -2.8915
S 3.4232 -1.5899 0.9036
C 2.2720 -2.8144 1.6298
H 1.2475 -2.4133 1.7120
H 2.5748 -3.1205 2.6369
H 2.2049 -3.7262 1.0267
O 4.5713 -1.4806 1.8778
O 3.8091 -2.1363 -0.4494
35
Frame 27
C -2.2302 -0.8685 1.1087
C -2.8970 0.4508 0.7397
H -3.9858 0.3620 0.9281
H -2.5436 1.2504 1.4209
H -2.4464 -1.6324 0.3349
H -2.6975 -1.2495 2.0392
C -0.7255 -0.7561 1.3234
C -0.0037 -0.4435 0.0684
H -0.3308 -1.7179 1.7296
H -0.5110 0.0036 2.1022
H -0.3018 -1.0155 -0.8171
C 1.0208 0.4416 0.0144
C -1.6642 1.9480 -0.9271
O -1.6495 2.9704 -0.2183
C -2.6913 0.8546 -0.7164
H -2.4101 -0.0326 -1.3216
H -3.6454 1.2207 -1.1450
C 1.5120 0.8888 -1.3347
O 2.5852 -0.2732 0.8141
H 1.2950 1.0750 0.8791
H 1.4481 0.0676 -2.0767
H 2.5864 1.1527 -1.2767
C 0.7227 2.1026 -1.8171
H 1.1972 2.4914 -2.7400
H 0.7987 2.9209 -1.0740
C -0.7395 1.7957 -2.1174
H -0.8282 0.7684 -2.5285
H -1.1118 2.4750 -2.9100
S 3.4413 -1.5783 0.9380
C 2.2896 -2.8181 1.6403
H 1.2575 -2.4325 1.6960
H 2.5719 -3.1163 2.6556
H 2.2513 -3.7323 1.0383
O 4.5570 -1.4420 1.9462
O 3.8786 -2.1316 -0.3966
35
Frame 28
C -2.2326 -0.8672 1.1034
C -2.8658 0.4743 0.7531
H -3.9500 0.4243 0.9777
H -2.4625 1.2615 1.4209
H -2.4750 -1.6175 0.3240
H -2.7018 -1.2453 2.0339
C -0.7235 -0.7959 1.3067
C -0.0070 -0.4714 0.0508
H -0.3446 -1.7742 1.6874
H -0.4844 -0.0583 2.0998
H -0.3076 -1.0400 -0.8364
C 1.0001 0.4241 -0.0034
C -1.6878 1.9783 -0.9468
O -1.6931 3.0153 -0.2644
C -2.6924 0.8688 -0.7103
H -2.4034 -0.0178 -1.3132
H -3.6601 1.2125 -1.1267
C 1.4911 0.8810 -1.3484
O 2.5835 -0.2825 0.8082
H 1.2826 1.0475 0.8660
H 1.4203 0.0688 -2.0996
H 2.5676 1.1361 -1.2887
C 0.7087 2.1056 -1.8152
H 1.1895 2.5073 -2.7292
H 0.7846 2.9116 -1.0588
C -0.7535 1.8097 -2.1278
H -0.8485 0.7799 -2.5313
H -1.1114 2.4856 -2.9296
S 3.4580 -1.5667 0.9736
C 2.3049 -2.8223 1.6490
H 1.2662 -2.4516 1.6776
H 2.5653 -3.1144 2.6717
H 2.2954 -3.7379 1.0482
O 4.5371 -1.4034 2.0180
O 3.9499 -2.1257 -0.3404
35
Frame 29
C -2.2329 -0.8645 1.1011
C -2.8299 0.4979 0.7664
H -3.9068 0.4888 1.0285
H -2.3755 1.2722 1.4163
H -2.5045 -1.6020 0.3192
H -2.7026 -1.2362 2.0339
C -0.7205 -0.8366 1.2892
C -0.0102 -0.4982 0.0325
H -0.3594 -1.8315 1.6418
H -0.4550 -0.1245 2.0968
H -0.3128 -1.0628 -0.8570
C 0.9798 0.4069 -0.0203
C -1.7137 2.0071 -0.9694
O -1.7443 3.0598 -0.3172
C -2.6915 0.8798 -0.7046
H -2.3919 -0.0060 -1.3039
H -3.6735 1.1968 -1.1082
C 1.4708 0.8762 -1.3603
O 2.5828 -0.2917 0.8018
H 1.2702 1.0189 0.8547
H 1.3953 0.0736 -2.1213
H 2.5487 1.1247 -1.2976
C 0.6935 2.1103 -1.8113
H 1.1813 2.5263 -2.7150
H 0.7662 2.9034 -1.0410
C -0.7676 1.8229 -2.1390
H -0.8668 0.7903 -2.5344
H -1.1102 2.4944 -2.9509
S 3.4717 -1.5562 1.0077
C 2.3170 -2.8261 1.6568
H 1.2726 -2.4707 1.6553
H 2.5533 -3.1101 2.6875
H 2.3379 -3.7444 1.0607
O 4.5135 -1.3685 2.0859
O 4.0148 -2.1202 -0.2843
35
Frame 30
C -2.2317 -0.8614 1.1004
C -2.7919 0.5199 0.7776
H -3.8587 0.5515 1.0757
H -2.2882 1.2807 1.4071
H -2.5318 -1.5872 0.3180
H -2.7017 -1.2247 2.0362
C -0.7172 -0.8762 1.2731
C -0.0127 -0.5251 0.0156
H -0.3746 -1.8866 1.5987
H -0.4257 -0.1894 2.0939
H -0.3165 -1.0872 -0.8754
C 0.9597 0.3896 -0.0364
C -1.7398 2.0342 -0.9926
O -1.7983 3.1005 -0.3704
C -2.6880 0.8881 -0.7003
H -2.3750 0.0038 -1.2952
H -3.6841 1.1748 -1.0914
C 1.4493 0.8714 -1.3719
O 2.5822 -0.2998 0.7971
H 1.2571 0.9922 0.8430
H 1.3675 0.0789 -2.1429
H 2.5289 1.1121 -1.3077
C 0.6780 2.1157 -1.8054
H 1.1741 2.5475 -2.6971
H 0.7465 2.8941 -1.0199
C -0.7814 1.8386 -2.1508
H -0.8849 0.8049 -2.5427
H -1.1077 2.5091 -2.9701
S 3.4826 -1.5470 1.0391
C 2.3274 -2.8291 1.6658
H 1.2785 -2.4887 1.6333
H 2.5393 -3.1022 2.7049
H 2.3777 -3.7510 1.0771
O 4.4904 -1.3371 2.1455
O 4.0705 -2.1147 -0.2319
