20
P25 HEAT OF FORMATION =  145.47024 KCAL =  608.64708 KJ
C                0.5286     -0.5490     -0.6397
C                0.7456      1.1085      0.9427
C               -1.7450      0.4047      0.5739
C               -0.6544      1.4628      0.4408
C               -1.8460     -0.6179     -0.5757
C                1.5753      0.1914      0.0071
H                0.6739      0.6196      1.9495
H               -1.6211     -0.1420      1.5466
H               -0.5980      1.8228     -0.6212
H               -2.3156     -0.1744     -1.5004
H                2.2094      0.7438     -0.7356
H                1.3339      2.0593      1.0560
H               -2.7442      0.9232      0.6057
H               -0.9914      2.3465      1.0558
H               -2.4219     -1.5354     -0.2620
H                2.2585     -0.5097      0.5720
O                2.0498     -2.5266     -0.7987
N               -0.5021     -1.0530     -0.9434
H                2.7018     -1.9408     -1.2020
H                1.3627     -2.6338     -1.4713
20
P24 HEAT OF FORMATION =  144.93141 KCAL =  606.39257 KJ
C                0.5312     -0.5583     -0.6297
C                0.7460      1.1060      0.9469
C               -1.7442      0.4051      0.5742
C               -0.6521      1.4615      0.4408
C               -1.8431     -0.6210     -0.5722
C                1.5760      0.1911      0.0104
H                0.6712      0.6151      1.9526
H               -1.6236     -0.1386      1.5491
H               -0.5924      1.8181     -0.6221
H               -2.3087     -0.1794     -1.4998
H                2.2006      0.7468     -0.7380
H                1.3345      2.0563      1.0642
H               -2.7429      0.9249      0.6017
H               -0.9895      2.3475      1.0523
H               -2.4227     -1.5357     -0.2571
H                2.2681     -0.5045      0.5708
O                2.0289     -2.5043     -0.8067
N               -0.4998     -1.0620     -0.9349
H                2.6991     -1.9365     -1.2055
H                1.3637     -2.6324     -1.4972
20
P23 HEAT OF FORMATION =  144.40131 KCAL =  604.17467 KJ
C                0.5339     -0.5692     -0.6186
C                0.7461      1.1032      0.9513
C               -1.7436      0.4059      0.5745
C               -0.6498      1.4602      0.4406
C               -1.8403     -0.6239     -0.5686
C                1.5764      0.1906      0.0138
H                0.6679      0.6100      1.9555
H               -1.6263     -0.1347      1.5515
H               -0.5865      1.8130     -0.6233
H               -2.3010     -0.1838     -1.4994
H                2.1900      0.7503     -0.7411
H                1.3351      2.0525      1.0730
H               -2.7416      0.9270      0.5977
H               -0.9874      2.3488      1.0484
H               -2.4246     -1.5353     -0.2525
H                2.2787     -0.4983      0.5692
O                2.0094     -2.4822     -0.8159
N               -0.4979     -1.0718     -0.9254
H                2.6966     -1.9314     -1.2093
H                1.3647     -2.6307     -1.5214
20
P22 HEAT OF FORMATION =  143.88586 KCAL =  602.01803 KJ
C                0.5367     -0.5810     -0.6074
C                0.7463      1.0999      0.9559
C               -1.7429      0.4067      0.5746
C               -0.6473      1.4589      0.4405
C               -1.8375     -0.6266     -0.5651
C                1.5766      0.1900      0.0170
H                0.6645      0.6043      1.9586
H               -1.6292     -0.1307      1.5539
H               -0.5803      1.8078     -0.6245
H               -2.2928     -0.1879     -1.4991
H                2.1781      0.7541     -0.7445
H                1.3358      2.0483      1.0823
H               -2.7402      0.9293      0.5934
H               -0.9849      2.3500      1.0443
H               -2.4269     -1.5344     -0.2483
H                2.2897     -0.4916      0.5669
O                1.9910     -2.4600     -0.8255
N               -0.4962     -1.0820     -0.9156
H                2.6937     -1.9257     -1.2141
H                1.3656     -2.6296     -1.5431
20
P21 HEAT OF FORMATION =  143.39057 KCAL =  599.94571 KJ
C                0.5399     -0.5935     -0.5962
C                0.7463      1.0964      0.9603
C               -1.7422      0.4076      0.5748
C               -0.6448      1.4577      0.4404
C               -1.8344     -0.6289     -0.5618
C                1.5764      0.1894      0.0198
H                0.6610      0.5980      1.9612
H               -1.6320     -0.1269      1.5560
H               -0.5741      1.8027     -0.6255
H               -2.2840     -0.1912     -1.4991
H                2.1652      0.7581     -0.7486
H                1.3365      2.0437      1.0918
H               -2.7387      0.9316      0.5892
H               -0.9823      2.3512      1.0405
H               -2.4296     -1.5329     -0.2448
H                2.3009     -0.4841      0.5640
O                1.9736     -2.4376     -0.8349
N               -0.4946     -1.0925     -0.9057
H                2.6906     -1.9196     -1.2191
H                1.3662     -2.6291     -1.5622
20
P20 HEAT OF FORMATION =  142.92041 KCAL =  597.97857 KJ
C                0.5431     -0.6066     -0.5854
C                0.7463      1.0927      0.9647
C               -1.7414      0.4086      0.5749
C               -0.6422      1.4564      0.4404
C               -1.8313     -0.6311     -0.5586
C                1.5761      0.1888      0.0223
H                0.6573      0.5910      1.9637
H               -1.6350     -0.1230      1.5582
H               -0.5677      1.7977     -0.6265
H               -2.2749     -0.1942     -1.4992
H                2.1515      0.7624     -0.7530
H                1.3373      2.0386      1.1018
H               -2.7372      0.9341      0.5850
H               -0.9795      2.3524      1.0367
H               -2.4326     -1.5311     -0.2415
H                2.3123     -0.4764      0.5605
O                1.9572     -2.4147     -0.8445
N               -0.4933     -1.1033     -0.8960
H                2.6876     -1.9130     -1.2248
H                1.3667     -2.6295     -1.5789
20
P19 HEAT OF FORMATION =  142.47961 KCAL =  596.13426 KJ
C                0.5466     -0.6205     -0.5746
C                0.7461      1.0885      0.9692
C               -1.7406      0.4098      0.5750
C               -0.6396      1.4552      0.4404
C               -1.8281     -0.6329     -0.5554
C                1.5753      0.1881      0.0246
H                0.6532      0.5835      1.9661
H               -1.6380     -0.1188      1.5602
H               -0.5612      1.7927     -0.6274
H               -2.2653     -0.1966     -1.4993
H                2.1366      0.7668     -0.7577
H                1.3381      2.0330      1.1121
H               -2.7357      0.9367      0.5806
H               -0.9765      2.3538      1.0329
H               -2.4358     -1.5286     -0.2385
H                2.3236     -0.4681      0.5562
O                1.9419     -2.3917     -0.8540
N               -0.4922     -1.1145     -0.8860
H                2.6846     -1.9058     -1.2311
H                1.3670     -2.6304     -1.5933
20
P18 HEAT OF FORMATION =  142.07140 KCAL =  594.42630 KJ
C                0.5505     -0.6348     -0.5646
C                0.7459      1.0841      0.9734
C               -1.7397      0.4109      0.5751
C               -0.6370      1.4541      0.4405
C               -1.8245     -0.6344     -0.5525
C                1.5743      0.1875      0.0263
H                0.6492      0.5754      1.9680
H               -1.6406     -0.1151      1.5621
H               -0.5549      1.7880     -0.6281
H               -2.2553     -0.1984     -1.4995
H                2.1210      0.7717     -0.7626
H                1.3388      2.0270      1.1225
H               -2.7340      0.9391      0.5767
H               -0.9734      2.3550      1.0296
H               -2.4390     -1.5258     -0.2363
H                2.3347     -0.4592      0.5515
O                1.9272     -2.3687     -0.8629
N               -0.4911     -1.1255     -0.8766
H                2.6810     -1.8982     -1.2377
H                1.3669     -2.6329     -1.6048
20
P17 HEAT OF FORMATION =  141.69766 KCAL =  592.86258 KJ
C                0.5549     -0.6494     -0.5558
C                0.7455      1.0794      0.9774
C               -1.7387      0.4121      0.5752
C               -0.6344      1.4532      0.4407
C               -1.8206     -0.6355     -0.5497
C                1.5730      0.1872      0.0274
H                0.6450      0.5663      1.9694
H               -1.6430     -0.1113      1.5639
H               -0.5488      1.7838     -0.6285
H               -2.2447     -0.1997     -1.4999
H                2.1049      0.7771     -0.7678
H                1.3396      2.0205      1.1335
H               -2.7323      0.9415      0.5726
H               -0.9701      2.3562      1.0267
H               -2.4420     -1.5225     -0.2344
H                2.3457     -0.4495      0.5461
O                1.9131     -2.3459     -0.8714
N               -0.4901     -1.1367     -0.8672
H                2.6766     -1.8899     -1.2448
H                1.3666     -2.6369     -1.6134
20
P16 HEAT OF FORMATION =  141.35871 KCAL =  591.44445 KJ
C                0.5601     -0.6640     -0.5480
C                0.7451      1.0749      0.9812
C               -1.7374      0.4130      0.5754
C               -0.6320      1.4523      0.4412
C               -1.8162     -0.6363     -0.5474
C                1.5718      0.1873      0.0281
H                0.6410      0.5574      1.9706
H               -1.6448     -0.1083      1.5655
H               -0.5432      1.7801     -0.6287
H               -2.2338     -0.2000     -1.5003
H                2.0887      0.7830     -0.7730
H                1.3402      2.0142      1.1439
H               -2.7306      0.9431      0.5694
H               -0.9670      2.3572      1.0245
H               -2.4445     -1.5191     -0.2338
H                2.3563     -0.4393      0.5408
O                1.8987     -2.3239     -0.8793
N               -0.4889     -1.1472     -0.8588
H                2.6709     -1.8815     -1.2517
H                1.3655     -2.6429     -1.6197
20
P15 HEAT OF FORMATION =  141.05356 KCAL =  590.16769 KJ
C                0.5659     -0.6790     -0.5410
C                0.7447      1.0701      0.9847
C               -1.7360      0.4138      0.5756
C               -0.6296      1.4515      0.4419
C               -1.8114     -0.6367     -0.5454
C                1.5703      0.1875      0.0282
H                0.6372      0.5481      1.9713
H               -1.6463     -0.1058      1.5669
H               -0.5379      1.7770     -0.6284
H               -2.2222     -0.1995     -1.5008
H                2.0716      0.7895     -0.7785
H                1.3408      2.0076      1.1544
H               -2.7288      0.9445      0.5664
H               -0.9639      2.3580      1.0230
H               -2.4466     -1.5154     -0.2339
H                2.3670     -0.4277      0.5348
O                1.8845     -2.3027     -0.8863
N               -0.4875     -1.1574     -0.8510
H                2.6641     -1.8725     -1.2585
H                1.3642     -2.6506     -1.6233
20
P14 HEAT OF FORMATION =  140.77968 KCAL =  589.02177 KJ
C                0.5727     -0.6941     -0.5357
C                0.7441      1.0650      0.9879
C               -1.7344      0.4146      0.5759
C               -0.6274      1.4510      0.4429
C               -1.8059     -0.6368     -0.5435
C                1.5689      0.1884      0.0274
H                0.6332      0.5373      1.9711
H               -1.6476     -0.1034      1.5683
H               -0.5331      1.7746     -0.6277
H               -2.2099     -0.1985     -1.5015
H                2.0541      0.7970     -0.7845
H                1.3412      2.0003      1.1656
H               -2.7270      0.9455      0.5634
H               -0.9608      2.3587      1.0223
H               -2.4482     -1.5113     -0.2348
H                2.3778     -0.4147      0.5283
O                1.8702     -2.2828     -0.8925
N               -0.4859     -1.1675     -0.8434
H                2.6556     -1.8627     -1.2655
H                1.3625     -2.6606     -1.6239
20
P13 HEAT OF FORMATION =  140.53352 KCAL =  587.99184 KJ
C                0.5803     -0.7093     -0.5320
C                0.7433      1.0594      0.9907
C               -1.7328      0.4155      0.5761
C               -0.6254      1.4507      0.4441
C               -1.8001     -0.6365     -0.5418
C                1.5673      0.1895      0.0257
H                0.6291      0.5253      1.9701
H               -1.6488     -0.1010      1.5695
H               -0.5288      1.7732     -0.6266
H               -2.1973     -0.1968     -1.5023
H                2.0362      0.8051     -0.7909
H                1.3416      1.9924      1.1770
H               -2.7253      0.9465      0.5604
H               -0.9575      2.3592      1.0227
H               -2.4497     -1.5069     -0.2359
H                2.3884     -0.4008      0.5211
O                1.8565     -2.2636     -0.8975
N               -0.4842     -1.1774     -0.8362
H                2.6462     -1.8525     -1.2728
H                1.3610     -2.6719     -1.6215
20
P12 HEAT OF FORMATION =  140.31039 KCAL =  587.05827 KJ
C                0.5884     -0.7248     -0.5300
C                0.7425      1.0536      0.9930
C               -1.7312      0.4164      0.5765
C               -0.6234      1.4505      0.4455
C               -1.7940     -0.6358     -0.5403
C                1.5655      0.1907      0.0232
H                0.6251      0.5128      1.9684
H               -1.6499     -0.0988      1.5707
H               -0.5250      1.7725     -0.6251
H               -2.1850     -0.1946     -1.5029
H                2.0184      0.8135     -0.7974
H                1.3421      1.9840      1.1881
H               -2.7236      0.9473      0.5578
H               -0.9541      2.3596      1.0239
H               -2.4506     -1.5024     -0.2374
H                2.3983     -0.3865      0.5137
O                1.8431     -2.2452     -0.9014
N               -0.4827     -1.1867     -0.8299
H                2.6365     -1.8422     -1.2796
H                1.3596     -2.6839     -1.6169
20
P11 HEAT OF FORMATION =  140.10475 KCAL =  586.19787 KJ
C                0.5966     -0.7408     -0.5285
C                0.7417      1.0472      0.9953
C               -1.7296      0.4174      0.5768
C               -0.6215      1.4505      0.4476
C               -1.7876     -0.6347     -0.5392
C                1.5632      0.1921      0.0196
H                0.6214      0.4991      1.9663
H               -1.6513     -0.0971      1.5718
H               -0.5213      1.7727     -0.6228
H               -2.1713     -0.1913     -1.5038
H                1.9985      0.8225     -0.8051
H                1.3428      1.9747      1.1997
H               -2.7219      0.9482      0.5551
H               -0.9505      2.3597      1.0264
H               -2.4518     -1.4969     -0.2404
H                2.4085     -0.3710      0.5044
O                1.8308     -2.2270     -0.9039
N               -0.4813     -1.1963     -0.8239
H                2.6260     -1.8308     -1.2881
H                1.3587     -2.6982     -1.6071
20
P10 HEAT OF FORMATION =  139.91028 KCAL =  585.38422 KJ
C                0.6058     -0.7568     -0.5289
C                0.7407      1.0406      0.9968
C               -1.7279      0.4182      0.5773
C               -0.6199      1.4507      0.4500
C               -1.7808     -0.6331     -0.5384
C                1.5609      0.1939      0.0150
H                0.6178      0.4847      1.9630
H               -1.6522     -0.0958      1.5727
H               -0.5187      1.7742     -0.6199
H               -2.1570     -0.1870     -1.5049
H                1.9787      0.8319     -0.8135
H                1.3434      1.9651      1.2108
H               -2.7204      0.9486      0.5529
H               -0.9471      2.3594      1.0304
H               -2.4528     -1.4911     -0.2442
H                2.4184     -0.3543      0.4949
O                1.8185     -2.2103     -0.9048
N               -0.4798     -1.2055     -0.8184
H                2.6145     -1.8197     -1.2956
H                1.3578     -2.7138     -1.5954
20
P09 HEAT OF FORMATION =  139.72060 KCAL =  584.59056 KJ
C                0.6153     -0.7729     -0.5308
C                0.7399      1.0337      0.9976
C               -1.7261      0.4188      0.5780
C               -0.6186      1.4511      0.4532
C               -1.7736     -0.6307     -0.5384
C                1.5581      0.1959      0.0091
H                0.6151      0.4696      1.9589
H               -1.6527     -0.0957      1.5733
H               -0.5173      1.7773     -0.6159
H               -2.1422     -0.1809     -1.5063
H                1.9579      0.8413     -0.8228
H                1.3444      1.9549      1.2212
H               -2.7189      0.9483      0.5515
H               -0.9437      2.3585      1.0366
H               -2.4536     -1.4846     -0.2498
H                2.4277     -0.3366      0.4840
O                1.8069     -2.1945     -0.9034
N               -0.4784     -1.2143     -0.8139
H                2.6020     -1.8086     -1.3034
H                1.3577     -2.7305     -1.5786
20
P08 HEAT OF FORMATION =  139.52851 KCAL =  583.78686 KJ
C                0.6250     -0.7894     -0.5338
C                0.7392      1.0265      0.9981
C               -1.7243      0.4193      0.5786
C               -0.6174      1.4515      0.4571
C               -1.7662     -0.6277     -0.5390
C                1.5550      0.1980      0.0020
H                0.6130      0.4536      1.9541
H               -1.6531     -0.0963      1.5735
H               -0.5163      1.7816     -0.6106
H               -2.1263     -0.1735     -1.5083
H                1.9356      0.8511     -0.8333
H                1.3455      1.9442      1.2314
H               -2.7175      0.9479      0.5503
H               -0.9403      2.3568      1.0446
H               -2.4549     -1.4773     -0.2571
H                2.4372     -0.3180      0.4712
O                1.7962     -2.1791     -0.9001
N               -0.4771     -1.2231     -0.8101
H                2.5884     -1.7969     -1.3126
H                1.3583     -2.7494     -1.5560
20
P07 HEAT OF FORMATION =  139.32687 KCAL =  582.94322 KJ
C                0.6350     -0.8065     -0.5372
C                0.7386      1.0189      0.9983
C               -1.7224      0.4196      0.5793
C               -0.6163      1.4523      0.4618
C               -1.7583     -0.6242     -0.5401
C                1.5514      0.2006     -0.0063
H                0.6111      0.4364      1.9484
H               -1.6537     -0.0974      1.5736
H               -0.5160      1.7878     -0.6044
H               -2.1089     -0.1648     -1.5108
H                1.9110      0.8607     -0.8455
H                1.3471      1.9326      1.2418
H               -2.7161      0.9471      0.5491
H               -0.9368      2.3549      1.0547
H               -2.4562     -1.4690     -0.2659
H                2.4469     -0.2973      0.4562
O                1.7862     -2.1647     -0.8947
N               -0.4759     -1.2323     -0.8062
H                2.5741     -1.7852     -1.3219
H                1.3592     -2.7695     -1.5303
20
P06 HEAT OF FORMATION =  139.11053 KCAL =  582.03805 KJ
C                0.6448     -0.8233     -0.5416
C                0.7382      1.0111      0.9981
C               -1.7204      0.4196      0.5799
C               -0.6154      1.4530      0.4674
C               -1.7502     -0.6200     -0.5423
C                1.5473      0.2033     -0.0157
H                0.6104      0.4191      1.9422
H               -1.6539     -0.1000      1.5731
H               -0.5164      1.7952     -0.5968
H               -2.0912     -0.1545     -1.5139
H                1.8862      0.8706     -0.8584
H                1.3489      1.9207      1.2512
H               -2.7147      0.9458      0.5485
H               -0.9335      2.3519      1.0671
H               -2.4577     -1.4599     -0.2767
H                2.4560     -0.2774      0.4395
O                1.7771     -2.1499     -0.8872
N               -0.4749     -1.2409     -0.8039
H                2.5579     -1.7734     -1.3335
H                1.3614     -2.7911     -1.4968
20
P05 HEAT OF FORMATION =  138.87617 KCAL =  581.05750 KJ
C                0.6546     -0.8411     -0.5466
C                0.7381      1.0031      0.9969
C               -1.7182      0.4192      0.5805
C               -0.6150      1.4541      0.4743
C               -1.7416     -0.6148     -0.5455
C                1.5423      0.2062     -0.0270
H                0.6109      0.4010      1.9348
H               -1.6537     -0.1040      1.5718
H               -0.5185      1.8056     -0.5870
H               -2.0704     -0.1415     -1.5175
H                1.8580      0.8790     -0.8741
H                1.3516      1.9085      1.2595
H               -2.7133      0.9438      0.5484
H               -0.9304      2.3476      1.0832
H               -2.4601     -1.4489     -0.2906
H                2.4648     -0.2549      0.4198
O                1.7691     -2.1358     -0.8768
N               -0.4741     -1.2505     -0.8016
H                2.5417     -1.7627     -1.3444
H                1.3644     -2.8137     -1.4584
20
P04 HEAT OF FORMATION =  138.62823 KCAL =  580.02009 KJ
C                0.6643     -0.8593     -0.5515
C                0.7381      0.9953      0.9954
C               -1.7158      0.4185      0.5814
C               -0.6146      1.4550      0.4821
C               -1.7327     -0.6091     -0.5496
C                1.5367      0.2091     -0.0389
H                0.6123      0.3835      1.9272
H               -1.6528     -0.1094      1.5704
H               -0.5211      1.8168     -0.5760
H               -2.0482     -0.1267     -1.5219
H                1.8285      0.8869     -0.8908
H                1.3543      1.8963      1.2666
H               -2.7119      0.9410      0.5495
H               -0.9274      2.3424      1.1009
H               -2.4631     -1.4369     -0.3072
H                2.4732     -0.2321      0.3984
O                1.7613     -2.1222     -0.8650
N               -0.4734     -1.2602     -0.7999
H                2.5239     -1.7527     -1.3557
H                1.3685     -2.8360     -1.4156
20
P03 HEAT OF FORMATION =  138.38256 KCAL =  578.99222 KJ
C                0.6737     -0.8776     -0.5561
C                0.7387      0.9876      0.9936
C               -1.7132      0.4169      0.5823
C               -0.6144      1.4558      0.4910
C               -1.7234     -0.6026     -0.5550
C                1.5306      0.2124     -0.0518
H                0.6153      0.3661      1.9193
H               -1.6513     -0.1168      1.5682
H               -0.5246      1.8292     -0.5633
H               -2.0239     -0.1095     -1.5271
H                1.7972      0.8941     -0.9089
H                1.3578      1.8844      1.2726
H               -2.7105      0.9371      0.5514
H               -0.9248      2.3359      1.1210
H               -2.4668     -1.4234     -0.3270
H                2.4815     -0.2088      0.3740
O                1.7540     -2.1084     -0.8511
N               -0.4730     -1.2700     -0.7987
H                2.5040     -1.7434     -1.3684
H                1.3733     -2.8589     -1.3657
20
P02 HEAT OF FORMATION =  138.17359 KCAL =  578.11790 KJ
C                0.6827     -0.8967     -0.5601
C                0.7396      0.9807      0.9909
C               -1.7102      0.4143      0.5833
C               -0.6147      1.4566      0.5010
C               -1.7138     -0.5952     -0.5618
C                1.5236      0.2153     -0.0654
H                0.6204      0.3509      1.9116
H               -1.6482     -0.1268      1.5651
H               -0.5300      1.8440     -0.5487
H               -1.9977     -0.0896     -1.5327
H                1.7644      0.8988     -0.9287
H                1.3619      1.8739      1.2751
H               -2.7091      0.9315      0.5548
H               -0.9229      2.3277      1.1443
H               -2.4708     -1.4083     -0.3504
H                2.4887     -0.1850      0.3485
O                1.7462     -2.0955     -0.8356
N               -0.4729     -1.2796     -0.7991
H                2.4842     -1.7368     -1.3788
H                1.3786     -2.8803     -1.3134
20
P01 HEAT OF FORMATION =  138.06326 KCAL =  577.65629 KJ
C                0.6918     -0.9157     -0.5635
C                0.7407      0.9731      0.9889
C               -1.7075      0.4127      0.5838
C               -0.6144      1.4573      0.5108
C               -1.7043     -0.5887     -0.5676
C                1.5167      0.2181     -0.0788
H                0.6242      0.3340      1.9036
H               -1.6475     -0.1343      1.5624
H               -0.5336      1.8579     -0.5342
H               -1.9728     -0.0727     -1.5377
H                1.7307      0.9032     -0.9478
H                1.3662      1.8619      1.2801
H               -2.7074      0.9279      0.5553
H               -0.9201      2.3200      1.1664
H               -2.4736     -1.3942     -0.3707
H                2.4958     -0.1613      0.3217
O                1.7384     -2.0817     -0.8218
N               -0.4726     -1.2888     -0.7989
H                2.4644     -1.7300     -1.3900
H                1.3846     -2.8987     -1.2618
