19
Frame 1
C 1.4375 -0.8004 0.0577
C 0.3399 1.4642 0.3217
C -1.5638 -0.2968 0.3319
C -1.1174 1.1286 -0.0473
C -0.8141 -1.4073 -0.4304
C 1.3826 0.6192 -0.4436
H 0.4894 1.3397 1.3887
H -1.4308 -0.4596 1.3956
H -1.2499 1.2669 -1.1174
H -0.7795 -1.1545 -1.4877
H 1.1391 0.6187 -1.5019
H 0.5198 2.5091 0.0915
H -2.6234 -0.3935 0.1155
H -1.7705 1.8409 0.4474
H -1.3603 -2.3341 -0.3364
H 2.3681 1.0420 -0.3225
O 2.6816 -1.1078 0.5455
N 0.5386 -1.6635 0.0877
H 2.6893 -2.0247 0.8565
19
Frame 2
C 1.4390 -0.7990 0.0612
C 0.3325 1.4666 0.3255
C -1.5682 -0.2929 0.3289
C -1.1188 1.1278 -0.0624
C -0.8169 -1.4115 -0.4192
C 1.3874 0.6259 -0.4265
H 0.4675 1.3419 1.3945
H -1.4405 -0.4442 1.3950
H -1.2356 1.2532 -1.1358
H -0.7877 -1.1734 -1.4802
H 1.1618 0.6333 -1.4890
H 0.5135 2.5121 0.0983
H -2.6267 -0.3920 0.1083
H -1.7793 1.8456 0.4142
H -1.3609 -2.3380 -0.3106
H 2.3707 1.0485 -0.2869
O 2.6886 -1.1166 0.5293
N 0.5397 -1.6615 0.0908
H 2.6974 -2.0382 0.8258
19
Frame 3
C 1.4401 -0.7974 0.0642
C 0.3253 1.4697 0.3289
C -1.5719 -0.2893 0.3267
C -1.1195 1.1263 -0.0777
C -0.8204 -1.4164 -0.4076
C 1.3930 0.6332 -0.4086
H 0.4458 1.3459 1.3997
H -1.4481 -0.4288 1.3950
H -1.2206 1.2379 -1.1542
H -0.7990 -1.1945 -1.4723
H 1.1877 0.6497 -1.4753
H 0.5069 2.5154 0.1036
H -2.6297 -0.3906 0.1036
H -1.7873 1.8495 0.3801
H -1.3620 -2.3423 -0.2822
H 2.3736 1.0546 -0.2481
O 2.6946 -1.1250 0.5138
N 0.5407 -1.6595 0.0920
H 2.7037 -2.0510 0.7964
19
Frame 4
C 1.4408 -0.7956 0.0668
C 0.3184 1.4734 0.3313
C -1.5744 -0.2861 0.3257
C -1.1196 1.1242 -0.0930
C -0.8245 -1.4217 -0.3962
C 1.3990 0.6409 -0.3900
H 0.4244 1.3523 1.4040
H -1.4523 -0.4135 1.3957
H -1.2055 1.2211 -1.1723
H -0.8126 -1.2162 -1.4643
H 1.2156 0.6669 -1.4607
H 0.4998 2.5193 0.1065
H -2.6320 -0.3894 0.1025
H -1.7947 1.8527 0.3455
H -1.3634 -2.3467 -0.2528
H 2.3765 1.0602 -0.2070
O 2.6994 -1.1331 0.4991
N 0.5416 -1.6579 0.0913
H 2.7085 -2.0634 0.7668
19
Frame 5
C 1.4409 -0.7936 0.0688
C 0.3119 1.4782 0.3323
C -1.5754 -0.2836 0.3269
C -1.1190 1.1211 -0.1080
C -0.8295 -1.4276 -0.3851
C 1.4058 0.6490 -0.3709
H 0.4039 1.3624 1.4070
H -1.4509 -0.3991 1.3981
H -1.1906 1.2017 -1.1896
H -0.8297 -1.2381 -1.4562
H 1.2470 0.6857 -1.4453
H 0.4923 2.5239 0.1053
H -2.6336 -0.3887 0.1074
H -1.8012 1.8545 0.3107
H -1.3651 -2.3515 -0.2227
H 2.3797 1.0654 -0.1630
O 2.7025 -1.1406 0.4865
N 0.5424 -1.6564 0.0871
H 2.7108 -2.0749 0.7399
19
Frame 6
C 1.4409 -0.7901 0.0685
C 0.3072 1.4829 0.3312
C -1.5757 -0.2832 0.3310
C -1.1174 1.1151 -0.1210
C -0.8362 -1.4340 -0.3749
C 1.4153 0.6585 -0.3534
H 0.3876 1.3744 1.4076
H -1.4456 -0.3882 1.4027
H -1.1774 1.1789 -1.2045
H -0.8525 -1.2599 -1.4483
H 1.2836 0.7071 -1.4311
H 0.4837 2.5284 0.1001
H -2.6353 -0.3885 0.1184
H -1.8054 1.8538 0.2786
H -1.3659 -2.3576 -0.1922
H 2.3846 1.0710 -0.1177
O 2.7029 -1.1477 0.4781
N 0.5423 -1.6526 0.0790
H 2.7070 -2.0858 0.7174
19
Frame 7
C 1.4425 -0.7829 0.0653
C 0.3051 1.4865 0.3283
C -1.5772 -0.2869 0.3369
C -1.1156 1.1057 -0.1295
C -0.8427 -1.4405 -0.3663
C 1.4279 0.6707 -0.3426
H 0.3791 1.3840 1.4058
H -1.4413 -0.3848 1.4085
H -1.1687 1.1553 -1.2140
H -0.8773 -1.2801 -1.4414
H 1.3188 0.7300 -1.4223
H 0.4727 2.5326 0.0937
H -2.6382 -0.3907 0.1304
H -1.8071 1.8487 0.2555
H -1.3622 -2.3661 -0.1640
H 2.3920 1.0809 -0.0824
O 2.6999 -1.1582 0.4757
N 0.5414 -1.6419 0.0691
H 2.6880 -2.0981 0.7075
19
Frame 8
C 1.4465 -0.7722 0.0610
C 0.3040 1.4896 0.3260
C -1.5784 -0.2937 0.3411
C -1.1146 1.0958 -0.1330
C -0.8457 -1.4466 -0.3597
C 1.4393 0.6849 -0.3407
H 0.3771 1.3892 1.4037
H -1.4391 -0.3880 1.4126
H -1.1649 1.1374 -1.2181
H -0.8960 -1.2990 -1.4360
H 1.3391 0.7496 -1.4208
H 0.4600 2.5375 0.0908
H -2.6401 -0.3961 0.1381
H -1.8090 1.8403 0.2439
H -1.3525 -2.3756 -0.1403
H 2.3994 1.0974 -0.0689
O 2.6939 -1.1746 0.4779
N 0.5409 -1.6252 0.0621
H 2.6521 -2.1150 0.7051
19
Frame 9
C 1.4514 -0.7605 0.0572
C 0.3024 1.4936 0.3252
C -1.5775 -0.3011 0.3430
C -1.1144 1.0879 -0.1342
C -0.8440 -1.4521 -0.3543
C 1.4467 0.6995 -0.3440
H 0.3772 1.3910 1.4026
H -1.4368 -0.3931 1.4145
H -1.1636 1.1266 -1.2194
H -0.9059 -1.3167 -1.4317
H 1.3444 0.7647 -1.4239
H 0.4474 2.5435 0.0925
H -2.6394 -0.4038 0.1412
H -1.8123 1.8308 0.2394
H -1.3391 -2.3842 -0.1204
H 2.4044 1.1177 -0.0719
O 2.6858 -1.1947 0.4813
N 0.5416 -1.6077 0.0586
H 2.6065 -2.1341 0.7041
19
Frame 10
C 1.4561 -0.7487 0.0541
C 0.3003 1.4977 0.3253
C -1.5745 -0.3080 0.3434
C -1.1144 1.0821 -0.1346
C -0.8386 -1.4573 -0.3492
C 1.4509 0.7137 -0.3493
H 0.3776 1.3907 1.4020
H -1.4342 -0.3978 1.4152
H -1.1633 1.1203 -1.2199
H -0.9091 -1.3333 -1.4276
H 1.3419 0.7772 -1.4286
H 0.4358 2.5498 0.0970
H -2.6361 -0.4126 0.1412
H -1.8162 1.8218 0.2381
H -1.3237 -2.3916 -0.1029
H 2.4071 1.1391 -0.0820
O 2.6756 -1.2159 0.4845
N 0.5436 -1.5918 0.0573
H 2.5563 -2.1527 0.7010
19
Frame 11
C 1.4601 -0.7363 0.0512
C 0.2983 1.5013 0.3257
C -1.5704 -0.3140 0.3432
C -1.1144 1.0779 -0.1348
C -0.8302 -1.4621 -0.3440
C 1.4530 0.7271 -0.3551
H 0.3782 1.3892 1.4016
H -1.4319 -0.4011 1.4155
H -1.1633 1.1168 -1.2201
H -0.9070 -1.3485 -1.4232
H 1.3358 0.7876 -1.4336
H 0.4261 2.5554 0.1024
H -2.6314 -0.4217 0.1394
H -1.8195 1.8142 0.2383
H -1.3069 -2.3984 -0.0876
H 2.4078 1.1600 -0.0945
O 2.6629 -1.2368 0.4868
N 0.5475 -1.5782 0.0575
H 2.5008 -2.1695 0.6955
19
Frame 12
C 1.4639 -0.7224 0.0484
C 0.2965 1.5036 0.3260
C -1.5663 -0.3189 0.3429
C -1.1143 1.0750 -0.1349
C -0.8204 -1.4668 -0.3391
C 1.4538 0.7387 -0.3602
H 0.3787 1.3873 1.4012
H -1.4301 -0.4031 1.4158
H -1.1635 1.1151 -1.2201
H -0.9014 -1.3615 -1.4190
H 1.3285 0.7953 -1.4379
H 0.4190 2.5591 0.1070
H -2.6265 -0.4298 0.1369
H -1.8218 1.8086 0.2392
H -1.2898 -2.4048 -0.0748
H 2.4069 1.1799 -0.1070
O 2.6474 -1.2562 0.4881
N 0.5543 -1.5678 0.0590
H 2.4377 -2.1820 0.6863
19
Frame 13
C 1.4694 -0.7066 0.0457
C 0.2952 1.5045 0.3263
C -1.5630 -0.3223 0.3429
C -1.1142 1.0734 -0.1350
C -0.8117 -1.4715 -0.3351
C 1.4539 0.7471 -0.3638
H 0.3791 1.3857 1.4010
H -1.4291 -0.4041 1.4163
H -1.1637 1.1143 -1.2201
H -0.8952 -1.3714 -1.4155
H 1.3218 0.7986 -1.4410
H 0.4154 2.5607 0.1097
H -2.6225 -0.4353 0.1348
H -1.8231 1.8052 0.2400
H -1.2760 -2.4107 -0.0659
H 2.4047 1.1973 -0.1179
O 2.6306 -1.2724 0.4882
N 0.5644 -1.5618 0.0619
H 2.3579 -2.1871 0.6704
19
Frame 14
C 1.4791 -0.6915 0.0442
C 0.2944 1.5045 0.3265
C -1.5607 -0.3242 0.3431
C -1.1141 1.0728 -0.1350
C -0.8063 -1.4758 -0.3327
C 1.4534 0.7515 -0.3657
H 0.3791 1.3850 1.4010
H -1.4286 -0.4046 1.4168
H -1.1638 1.1141 -1.2201
H -0.8903 -1.3776 -1.4134
H 1.3173 0.7978 -1.4426
H 0.4146 2.5608 0.1108
H -2.6197 -0.4382 0.1330
H -1.8238 1.8034 0.2405
H -1.2685 -2.4153 -0.0611
H 2.4021 1.2093 -0.1253
O 2.6155 -1.2829 0.4872
N 0.5748 -1.5609 0.0657
H 2.2542 -2.1756 0.6436
19
Frame 15
C 1.4920 -0.6812 0.0446
C 0.2939 1.5042 0.3266
C -1.5593 -0.3250 0.3434
C -1.1141 1.0726 -0.1350
C -0.8040 -1.4791 -0.3316
C 1.4526 0.7530 -0.3664
H 0.3790 1.3848 1.4011
H -1.4286 -0.4047 1.4173
H -1.1639 1.1141 -1.2201
H -0.8873 -1.3810 -1.4123
H 1.3149 0.7955 -1.4432
H 0.4149 2.5605 0.1111
H -2.6181 -0.4398 0.1317
H -1.8243 1.8026 0.2407
H -1.2662 -2.4183 -0.0592
H 2.4004 1.2145 -0.1289
O 2.6054 -1.2869 0.4857
N 0.5821 -1.5638 0.0691
H 2.1281 -2.1533 0.6076
19
Frame 16
C 1.5041 -0.6764 0.0462
C 0.2938 1.5041 0.3267
C -1.5586 -0.3253 0.3436
C -1.1141 1.0725 -0.1351
C -0.8033 -1.4813 -0.3311
C 1.4519 0.7533 -0.3667
H 0.3789 1.3849 1.4012
H -1.4286 -0.4048 1.4175
H -1.1640 1.1141 -1.2201
H -0.8855 -1.3826 -1.4117
H 1.3138 0.7938 -1.4435
H 0.4152 2.5602 0.1114
H -2.6171 -0.4408 0.1307
H -1.8246 1.8022 0.2408
H -1.2662 -2.4200 -0.0586
H 2.3995 1.2154 -0.1301
O 2.6009 -1.2851 0.4840
N 0.5864 -1.5674 0.0717
H 1.9867 -2.1534 0.5736
19
Frame 17
C 1.5140 -0.6748 0.0482
C 0.2937 1.5040 0.3267
C -1.5582 -0.3254 0.3438
C -1.1141 1.0726 -0.1351
C -0.8030 -1.4829 -0.3308
C 1.4513 0.7533 -0.3669
H 0.3788 1.3849 1.4013
H -1.4287 -0.4048 1.4177
H -1.1641 1.1142 -1.2201
H -0.8843 -1.3836 -1.4112
H 1.3132 0.7929 -1.4437
H 0.4153 2.5601 0.1115
H -2.6164 -0.4415 0.1299
H -1.8249 1.8019 0.2408
H -1.2667 -2.4209 -0.0585
H 2.3991 1.2146 -0.1303
O 2.6001 -1.2801 0.4824
N 0.5894 -1.5707 0.0736
H 1.8404 -2.1794 0.5452
19
Frame 18
C 1.5316 -0.6746 0.0525
C 0.2936 1.5039 0.3267
C -1.5574 -0.3255 0.3442
C -1.1141 1.0726 -0.1351
C -0.8028 -1.4857 -0.3304
C 1.4503 0.7530 -0.3671
H 0.3788 1.3850 1.4014
H -1.4289 -0.4048 1.4179
H -1.1642 1.1142 -1.2201
H -0.8815 -1.3846 -1.4103
H 1.3122 0.7922 -1.4440
H 0.4152 2.5600 0.1119
H -2.6152 -0.4430 0.1285
H -1.8253 1.8014 0.2409
H -1.2686 -2.4221 -0.0588
H 2.3986 1.2121 -0.1302
O 2.6016 -1.2684 0.4795
N 0.5938 -1.5766 0.0768
H 1.5474 -2.2416 0.4908
19
Frame 19
C 1.5411 -0.6755 0.0550
C 0.2936 1.5038 0.3267
C -1.5570 -0.3256 0.3443
C -1.1141 1.0727 -0.1351
C -0.8026 -1.4871 -0.3301
C 1.4497 0.7528 -0.3672
H 0.3787 1.3851 1.4015
H -1.4290 -0.4048 1.4180
H -1.1643 1.1141 -1.2201
H -0.8800 -1.3850 -1.4097
H 1.3117 0.7919 -1.4442
H 0.4149 2.5600 0.1120
H -2.6145 -0.4438 0.1278
H -1.8256 1.8011 0.2409
H -1.2697 -2.4227 -0.0590
H 2.3983 1.2107 -0.1301
O 2.6028 -1.2619 0.4779
N 0.5949 -1.5793 0.0781
H 1.4017 -2.2721 0.4634
19
Frame 20
C 1.5521 -0.6780 0.0584
C 0.2935 1.5037 0.3267
C -1.5566 -0.3257 0.3444
C -1.1140 1.0727 -0.1351
C -0.8022 -1.4885 -0.3299
C 1.4489 0.7523 -0.3673
H 0.3786 1.3851 1.4016
H -1.4291 -0.4047 1.4182
H -1.1644 1.1141 -1.2201
H -0.8789 -1.3855 -1.4092
H 1.3111 0.7915 -1.4443
H 0.4147 2.5599 0.1121
H -2.6138 -0.4446 0.1270
H -1.8259 1.8007 0.2410
H -1.2711 -2.4236 -0.0592
H 2.3981 1.2095 -0.1301
O 2.6043 -1.2543 0.4762
N 0.5938 -1.5810 0.0786
H 1.2606 -2.3119 0.4397
19
Frame 21
C 1.5651 -0.6832 0.0630
C 0.2935 1.5035 0.3267
C -1.5561 -0.3260 0.3445
C -1.1140 1.0727 -0.1351
C -0.8020 -1.4894 -0.3298
C 1.4481 0.7512 -0.3673
H 0.3784 1.3850 1.4017
H -1.4290 -0.4048 1.4184
H -1.1645 1.1141 -1.2200
H -0.8792 -1.3861 -1.4091
H 1.3103 0.7902 -1.4443
H 0.4146 2.5598 0.1120
H -2.6131 -0.4452 0.1264
H -1.8263 1.8002 0.2412
H -1.2724 -2.4244 -0.0592
H 2.3976 1.2085 -0.1305
O 2.6072 -1.2446 0.4742
N 0.5892 -1.5810 0.0780
H 1.1307 -2.3664 0.4228
19
Frame 22
C 1.5784 -0.6923 0.0689
C 0.2935 1.5028 0.3268
C -1.5559 -0.3263 0.3444
C -1.1140 1.0726 -0.1350
C -0.8029 -1.4888 -0.3306
C 1.4469 0.7487 -0.3671
H 0.3780 1.3850 1.4019
H -1.4286 -0.4051 1.4184
H -1.1645 1.1140 -1.2200
H -0.8829 -1.3863 -1.4099
H 1.3087 0.7867 -1.4439
H 0.4150 2.5591 0.1116
H -2.6130 -0.4449 0.1263
H -1.8268 1.7997 0.2414
H -1.2736 -2.4241 -0.0593
H 2.3965 1.2076 -0.1317
O 2.6140 -1.2323 0.4724
N 0.5805 -1.5804 0.0764
H 1.0148 -2.4215 0.4098
19
Frame 23
C 1.5893 -0.7050 0.0754
C 0.2934 1.5012 0.3270
C -1.5567 -0.3264 0.3440
C -1.1142 1.0726 -0.1347
C -0.8072 -1.4847 -0.3335
C 1.4452 0.7430 -0.3661
H 0.3773 1.3849 1.4024
H -1.4275 -0.4062 1.4179
H -1.1646 1.1140 -1.2197
H -0.8915 -1.3841 -1.4127
H 1.3057 0.7782 -1.4429
H 0.4165 2.5570 0.1103
H -2.6143 -0.4430 0.1276
H -1.8272 1.7995 0.2418
H -1.2770 -2.4207 -0.0608
H 2.3945 1.2049 -0.1342
O 2.6280 -1.2168 0.4715
N 0.5691 -1.5811 0.0747
H 0.9227 -2.4593 0.3985
19
Frame 24
C 1.5958 -0.7185 0.0816
C 0.2935 1.4976 0.3272
C -1.5594 -0.3247 0.3436
C -1.1149 1.0729 -0.1341
C -0.8158 -1.4769 -0.3392
C 1.4424 0.7328 -0.3645
H 0.3764 1.3842 1.4030
H -1.4260 -0.4081 1.4166
H -1.1650 1.1143 -1.2191
H -0.9015 -1.3759 -1.4181
H 1.2998 0.7633 -1.4412
H 0.4202 2.5525 0.1075
H -2.6181 -0.4384 0.1308
H -1.8269 1.8008 0.2423
H -1.2863 -2.4130 -0.0674
H 2.3917 1.1971 -0.1383
O 2.6480 -1.1990 0.4715
N 0.5590 -1.5845 0.0740
H 0.8688 -2.4801 0.3926
19
Frame 25
C 1.6002 -0.7300 0.0874
C 0.2937 1.4917 0.3275
C -1.5642 -0.3205 0.3434
C -1.1166 1.0747 -0.1328
C -0.8249 -1.4672 -0.3469
C 1.4375 0.7186 -0.3631
H 0.3758 1.3819 1.4037
H -1.4257 -0.4092 1.4152
H -1.1665 1.1162 -1.2179
H -0.9053 -1.3587 -1.4251
H 1.2901 0.7428 -1.4393
H 0.4268 2.5450 0.1037
H -2.6240 -0.4316 0.1349
H -1.8256 1.8054 0.2435
H -1.3002 -2.4031 -0.0831
H 2.3879 1.1842 -0.1450
O 2.6683 -1.1803 0.4715
N 0.5536 -1.5908 0.0752
H 0.8423 -2.4942 0.3916
19
Frame 26
C 1.6038 -0.7396 0.0929
C 0.2938 1.4837 0.3278
C -1.5699 -0.3144 0.3432
C -1.1197 1.0790 -0.1304
C -0.8293 -1.4565 -0.3550
C 1.4299 0.7020 -0.3637
H 0.3762 1.3760 1.4042
H -1.4284 -0.4082 1.4141
H -1.1706 1.1218 -1.2153
H -0.8976 -1.3326 -1.4322
H 1.2742 0.7178 -1.4391
H 0.4359 2.5353 0.1014
H -2.6301 -0.4251 0.1367
H -1.8237 1.8135 0.2477
H -1.3125 -2.3930 -0.1088
H 2.3817 1.1699 -0.1577
O 2.6852 -1.1628 0.4716
N 0.5522 -1.5988 0.0784
H 0.8248 -2.5075 0.3943
19
Frame 27
C 1.6065 -0.7479 0.0976
C 0.2937 1.4750 0.3285
C -1.5745 -0.3085 0.3420
C -1.1242 1.0857 -0.1258
C -0.8268 -1.4446 -0.3634
C 1.4196 0.6855 -0.3690
H 0.3785 1.3649 1.4045
H -1.4343 -0.4073 1.4126
H -1.1787 1.1337 -1.2104
H -0.8781 -1.3006 -1.4388
H 1.2500 0.6903 -1.4424
H 0.4460 2.5254 0.1034
H -2.6339 -0.4217 0.1329
H -1.8221 1.8227 0.2587
H -1.3192 -2.3824 -0.1420
H 2.3731 1.1575 -0.1808
O 2.6977 -1.1488 0.4728
N 0.5530 -1.6068 0.0844
H 0.8117 -2.5186 0.4025
19
Frame 28
C 1.6087 -0.7544 0.1007
C 0.2940 1.4671 0.3297
C -1.5772 -0.3044 0.3390
C -1.1294 1.0933 -0.1182
C -0.8194 -1.4331 -0.3723
C 1.4083 0.6710 -0.3796
H 0.3842 1.3503 1.4045
H -1.4416 -0.4097 1.4095
H -1.1910 1.1518 -1.2019
H -0.8506 -1.2686 -1.4454
H 1.2189 0.6627 -1.4496
H 0.4553 2.5172 0.1094
H -2.6351 -0.4217 0.1238
H -1.8211 1.8295 0.2787
H -1.3206 -2.3720 -0.1780
H 2.3633 1.1481 -0.2146
O 2.7054 -1.1396 0.4759
N 0.5544 -1.6124 0.0933
H 0.8013 -2.5252 0.4179
19
Frame 29
C 1.6106 -0.7588 0.1026
C 0.2955 1.4601 0.3308
C -1.5791 -0.3029 0.3342
C -1.1340 1.1003 -0.1079
C -0.8105 -1.4230 -0.3818
C 1.3976 0.6587 -0.3938
H 0.3940 1.3350 1.4040
H -1.4497 -0.4168 1.4046
H -1.2056 1.1737 -1.1900
H -0.8207 -1.2401 -1.4523
H 1.1854 0.6367 -1.4592
H 0.4638 2.5102 0.1164
H -2.6350 -0.4230 0.1113
H -1.8193 1.8331 0.3060
H -1.3185 -2.3633 -0.2136
H 2.3541 1.1411 -0.2548
O 2.7097 -1.1334 0.4807
N 0.5552 -1.6149 0.1037
H 0.7913 -2.5260 0.4403
19
Frame 30
C 1.6120 -0.7618 0.1035
C 0.2988 1.4533 0.3316
C -1.5811 -0.3031 0.3287
C -1.1374 1.1059 -0.0955
C -0.8019 -1.4144 -0.3916
C 1.3883 0.6477 -0.4099
H 0.4075 1.3199 1.4027
H -1.4592 -0.4275 1.3988
H -1.2207 1.1968 -1.1754
H -0.7920 -1.2150 -1.4590
H 1.1528 0.6125 -1.4699
H 0.4719 2.5037 0.1228
H -2.6349 -0.4243 0.0967
H -1.8157 1.8341 0.3379
H -1.3148 -2.3560 -0.2475
H 2.3458 1.1348 -0.2969
O 2.7120 -1.1277 0.4869
N 0.5551 -1.6153 0.1142
H 0.7812 -2.5239 0.4640
19
Frame 31
C 1.6130 -0.7637 0.1037
C 0.3036 1.4463 0.3320
C -1.5833 -0.3044 0.3230
C -1.1396 1.1105 -0.0817
C -0.7942 -1.4069 -0.4012
C 1.3800 0.6373 -0.4271
H 0.4239 1.3048 1.4008
H -1.4701 -0.4404 1.3926
H -1.2355 1.2200 -1.1589
H -0.7654 -1.1924 -1.4651
H 1.1215 0.5895 -1.4809
H 0.4802 2.4971 0.1285
H -2.6350 -0.4249 0.0809
H -1.8100 1.8333 0.3723
H -1.3104 -2.3497 -0.2798
H 2.3381 1.1284 -0.3396
O 2.7128 -1.1214 0.4945
N 0.5545 -1.6145 0.1237
H 0.7711 -2.5193 0.4884
19
Frame 32
C 1.6136 -0.7650 0.1031
C 0.3096 1.4391 0.3321
C -1.5856 -0.3062 0.3174
C -1.1405 1.1141 -0.0669
C -0.7877 -1.4005 -0.4106
C 1.3725 0.6274 -0.4450
H 0.4424 1.2897 1.3983
H -1.4814 -0.4543 1.3863
H -1.2497 1.2430 -1.1407
H -0.7424 -1.1728 -1.4711
H 1.0914 0.5677 -1.4920
H 0.4890 2.4903 0.1337
H -2.6350 -0.4246 0.0649
H -1.8026 1.8311 0.4082
H -1.3060 -2.3445 -0.3089
H 2.3307 1.1216 -0.3824
O 2.7124 -1.1141 0.5036
N 0.5536 -1.6132 0.1314
H 0.7610 -2.5136 0.5117
19
Frame 33
C 1.6136 -0.7657 0.1019
C 0.3167 1.4321 0.3315
C -1.5872 -0.3084 0.3128
C -1.1402 1.1170 -0.0514
C -0.7823 -1.3952 -0.4195
C 1.3657 0.6179 -0.4635
H 0.4630 1.2753 1.3949
H -1.4917 -0.4689 1.3807
H -1.2634 1.2653 -1.1211
H -0.7238 -1.1561 -1.4764
H 1.0633 0.5473 -1.5035
H 0.4982 2.4836 0.1375
H -2.6347 -0.4236 0.0506
H -1.7933 1.8277 0.4451
H -1.3021 -2.3400 -0.3348
H 2.3240 1.1144 -0.4240
O 2.7105 -1.1055 0.5151
N 0.5526 -1.6123 0.1358
H 0.7513 -2.5076 0.5323
19
Frame 34
C 1.6126 -0.7660 0.1001
C 0.3248 1.4263 0.3296
C -1.5869 -0.3108 0.3108
C -1.1386 1.1191 -0.0356
C -0.7790 -1.3914 -0.4280
C 1.3598 0.6090 -0.4818
H 0.4850 1.2645 1.3902
H -1.4960 -0.4829 1.3774
H -1.2765 1.2850 -1.1010
H -0.7126 -1.1424 -1.4820
H 1.0378 0.5288 -1.5148
H 0.5076 2.4780 0.1377
H -2.6334 -0.4220 0.0432
H -1.7826 1.8234 0.4813
H -1.3001 -2.3366 -0.3562
H 2.3181 1.1067 -0.4635
O 2.7060 -1.0951 0.5303
N 0.5522 -1.6129 0.1346
H 0.7432 -2.5031 0.5457
19
Frame 35
C 1.6102 -0.7662 0.0983
C 0.3323 1.4246 0.3251
C -1.5826 -0.3134 0.3146
C -1.1361 1.1198 -0.0222
C -0.7784 -1.3895 -0.4355
C 1.3558 0.6024 -0.4969
H 0.5058 1.2639 1.3839
H -1.4875 -0.4943 1.3793
H -1.2881 1.2967 -1.0839
H -0.7122 -1.1320 -1.4873
H 1.0196 0.5149 -1.5245
H 0.5146 2.4756 0.1297
H -2.6304 -0.4213 0.0508
H -1.7727 1.8193 0.5104
H -1.3011 -2.3343 -0.3712
H 2.3145 1.0995 -0.4937
O 2.6984 -1.0846 0.5490
N 0.5528 -1.6167 0.1244
H 0.7386 -2.5031 0.5460
19
Frame 36
C 1.6070 -0.7664 0.0971
C 0.3377 1.4270 0.3183
C -1.5749 -0.3158 0.3239
C -1.1338 1.1194 -0.0129
C -0.7799 -1.3887 -0.4414
C 1.3540 0.5987 -0.5066
H 0.5216 1.2740 1.3765
H -1.4661 -0.5014 1.3865
H -1.2983 1.2989 -1.0723
H -0.7204 -1.1231 -1.4914
H 1.0117 0.5066 -1.5316
H 0.5177 2.4767 0.1137
H -2.6261 -0.4227 0.0734
H -1.7657 1.8162 0.5287
H -1.3045 -2.3326 -0.3807
H 2.3138 1.0938 -0.5102
O 2.6890 -1.0763 0.5682
N 0.5544 -1.6228 0.1078
H 0.7376 -2.5076 0.5336
