20
P1 HEAT OF FORMATION =  211.68870 KCAL =  885.70490 KJ
C                0.4721     -0.2277     -0.8387
C               -0.0051      0.9641      1.3115
C               -1.5006     -0.9197      0.5262
C               -1.4468      0.4238      1.2791
C               -0.9353     -0.7707     -0.9050
C                0.5603      1.0942     -0.1226
H                0.6441      0.2808      1.9122
H               -0.9188     -1.6943      1.0836
H               -2.1166      1.1652      0.7768
H               -1.5509     -0.0285     -1.4813
H               -0.0517      1.8423     -0.6951
H                0.0081      1.9763      1.7883
H               -2.5628     -1.2636      0.4462
H               -1.8085      0.2744      2.3272
H               -0.9965     -1.7601     -1.4291
H                1.6139      1.4722     -0.0722
O                2.7267     -0.2817     -1.3139
N                1.4073     -0.8907     -1.3616
H                3.2212     -0.7709     -0.6435
H                3.2398     -0.8855     -2.5876
20
P2 HEAT OF FORMATION =  210.21149 KCAL =  879.52427 KJ
C                0.4721     -0.2309     -0.8381
C               -0.0063      0.9641      1.3102
C               -1.5020     -0.9201      0.5267
C               -1.4483      0.4246      1.2773
C               -0.9362     -0.7735     -0.9047
C                0.5606      1.0917     -0.1239
H                0.6421      0.2814      1.9125
H               -0.9206     -1.6940      1.0856
H               -2.1171      1.1656      0.7732
H               -1.5506     -0.0314     -1.4822
H               -0.0505      1.8392     -0.6981
H                0.0071      1.9772      1.7851
H               -2.5642     -1.2640      0.4466
H               -1.8110      0.2772      2.3254
H               -0.9975     -1.7636     -1.4275
H                1.6144      1.4690     -0.0728
O                2.7322     -0.2823     -1.3065
N                1.4066     -0.8958     -1.3602
H                3.2288     -0.7877     -0.6495
H                3.2403     -0.8466     -2.5791
20
P3 HEAT OF FORMATION =  208.70577 KCAL =  873.22433 KJ
C                0.4717     -0.2336     -0.8383
C               -0.0067      0.9635      1.3086
C               -1.5034     -0.9205      0.5267
C               -1.4489      0.4247      1.2761
C               -0.9375     -0.7756     -0.9050
C                0.5603      1.0897     -0.1259
H                0.6415      0.2811      1.9115
H               -0.9225     -1.6944      1.0862
H               -2.1174      1.1656      0.7714
H               -1.5510     -0.0333     -1.4832
H               -0.0508      1.8366     -0.7008
H                0.0073      1.9771      1.7824
H               -2.5658     -1.2639      0.4467
H               -1.8118      0.2784      2.3243
H               -0.9993     -1.7660     -1.4270
H                1.6143      1.4669     -0.0750
O                2.7372     -0.2817     -1.3009
N                1.4057     -0.9003     -1.3592
H                3.2348     -0.7973     -0.6523
H                3.2423     -0.8169     -2.5662
20
P4 HEAT OF FORMATION =  207.17100 KCAL =  866.80287 KJ
C                0.4711     -0.2358     -0.8387
C               -0.0071      0.9631      1.3068
C               -1.5044     -0.9211      0.5266
C               -1.4493      0.4244      1.2750
C               -0.9390     -0.7772     -0.9056
C                0.5598      1.0881     -0.1282
H                0.6413      0.2814      1.9100
H               -0.9236     -1.6949      1.0862
H               -2.1180      1.1652      0.7702
H               -1.5516     -0.0344     -1.4841
H               -0.0518      1.8342     -0.7039
H                0.0071      1.9773      1.7795
H               -2.5670     -1.2642      0.4469
H               -1.8117      0.2787      2.3235
H               -1.0012     -1.7678     -1.4272
H                1.6136      1.4656     -0.0778
O                2.7425     -0.2819     -1.2944
N                1.4047     -0.9047     -1.3578
H                3.2407     -0.8082     -0.6545
H                3.2439     -0.7878     -2.5523
20
P5 HEAT OF FORMATION =  205.60749 KCAL =  860.26113 KJ
C                0.4709     -0.2385     -0.8388
C               -0.0077      0.9625      1.3054
C               -1.5058     -0.9216      0.5267
C               -1.4503      0.4247      1.2736
C               -0.9401     -0.7795     -0.9057
C                0.5599      1.0859     -0.1297
H                0.6401      0.2810      1.9096
H               -0.9256     -1.6951      1.0873
H               -2.1183      1.1654      0.7677
H               -1.5516     -0.0366     -1.4852
H               -0.0513      1.8316     -0.7064
H                0.0070      1.9772      1.7770
H               -2.5686     -1.2642      0.4469
H               -1.8133      0.2805      2.3220
H               -1.0025     -1.7705     -1.4264
H                1.6138      1.4630     -0.0791
O                2.7476     -0.2811     -1.2896
N                1.4038     -0.9090     -1.3572
H                3.2473     -0.8172     -0.6585
H                3.2446     -0.7585     -2.5396
20
P6 HEAT OF FORMATION =  204.01650 KCAL =  853.60445 KJ
C                0.4704     -0.2408     -0.8391
C               -0.0081      0.9621      1.3036
C               -1.5069     -0.9221      0.5265
C               -1.4507      0.4246      1.2724
C               -0.9415     -0.7811     -0.9062
C                0.5594      1.0843     -0.1320
H                0.6398      0.2810      1.9082
H               -0.9269     -1.6956      1.0874
H               -2.1187      1.1651      0.7664
H               -1.5521     -0.0378     -1.4861
H               -0.0521      1.8291     -0.7094
H                0.0069      1.9773      1.7741
H               -2.5698     -1.2644      0.4469
H               -1.8135      0.2810      2.3212
H               -1.0044     -1.7723     -1.4265
H                1.6133      1.4615     -0.0818
O                2.7529     -0.2811     -1.2834
N                1.4029     -0.9134     -1.3559
H                3.2535     -0.8271     -0.6612
H                3.2456     -0.7302     -2.5250
20
P7 HEAT OF FORMATION =  202.40009 KCAL =  846.84139 KJ
C                0.4702     -0.2433     -0.8393
C               -0.0087      0.9617      1.3021
C               -1.5081     -0.9226      0.5264
C               -1.4515      0.4246      1.2711
C               -0.9427     -0.7831     -0.9066
C                0.5593      1.0823     -0.1338
H                0.6390      0.2811      1.9075
H               -0.9285     -1.6960      1.0879
H               -2.1192      1.1650      0.7644
H               -1.5523     -0.0394     -1.4871
H               -0.0520      1.8266     -0.7121
H                0.0066      1.9774      1.7713
H               -2.5712     -1.2645      0.4468
H               -1.8144      0.2821      2.3199
H               -1.0059     -1.7745     -1.4263
H                1.6133      1.4594     -0.0836
O                2.7582     -0.2809     -1.2778
N                1.4021     -0.9176     -1.3550
H                3.2601     -0.8367     -0.6650
H                3.2456     -0.7016     -2.5111
20
P8 HEAT OF FORMATION =  200.76023 KCAL =  839.98023 KJ
C                0.4698     -0.2456     -0.8397
C               -0.0092      0.9611      1.3006
C               -1.5092     -0.9231      0.5263
C               -1.4521      0.4247      1.2698
C               -0.9439     -0.7849     -0.9070
C                0.5591      1.0805     -0.1356
H                0.6383      0.2808      1.9065
H               -0.9300     -1.6963      1.0883
H               -2.1195      1.1649      0.7625
H               -1.5526     -0.0410     -1.4881
H               -0.0522      1.8242     -0.7147
H                0.0066      1.9773      1.7688
H               -2.5724     -1.2647      0.4468
H               -1.8153      0.2831      2.3187
H               -1.0074     -1.7766     -1.4261
H                1.6132      1.4574     -0.0855
O                2.7634     -0.2804     -1.2729
N                1.4012     -0.9216     -1.3544
H                3.2664     -0.8446     -0.6682
H                3.2460     -0.6753     -2.4961
20
P9 HEAT OF FORMATION =  199.10407 KCAL =  833.05084 KJ
C                0.4690     -0.2474     -0.8407
C               -0.0091      0.9603      1.2988
C               -1.5102     -0.9237      0.5258
C               -1.4522      0.4241      1.2689
C               -0.9456     -0.7861     -0.9081
C                0.5585      1.0791     -0.1381
H                0.6386      0.2803      1.9046
H               -0.9310     -1.6972      1.0876
H               -2.1198      1.1645      0.7620
H               -1.5536     -0.0415     -1.4890
H               -0.0534      1.8221     -0.7174
H                0.0070      1.9768      1.7663
H               -2.5736     -1.2649      0.4467
H               -1.8146      0.2828      2.3181
H               -1.0097     -1.7778     -1.4271
H                1.6125      1.4562     -0.0887
O                2.7684     -0.2795     -1.2684
N                1.4000     -0.9252     -1.3542
H                3.2713     -0.8488     -0.6681
H                3.2474     -0.6542     -2.4791
20
P10 HEAT OF FORMATION =  197.42759 KCAL =  826.03645 KJ
C                0.4690     -0.2500     -0.8406
C               -0.0099      0.9599      1.2974
C               -1.5115     -0.9240      0.5257
C               -1.4531      0.4244      1.2675
C               -0.9466     -0.7881     -0.9083
C                0.5585      1.0771     -0.1397
H                0.6374      0.2803      1.9040
H               -0.9329     -1.6973      1.0884
H               -2.1202      1.1645      0.7596
H               -1.5534     -0.0434     -1.4901
H               -0.0532      1.8196     -0.7201
H                0.0066      1.9770      1.7636
H               -2.5751     -1.2649      0.4464
H               -1.8161      0.2844      2.3167
H               -1.0109     -1.7802     -1.4264
H                1.6126      1.4540     -0.0901
O                2.7740     -0.2795     -1.2627
N                1.3994     -0.9295     -1.3528
H                3.2790     -0.8594     -0.6739
H                3.2461     -0.6248     -2.4647
20
P11 HEAT OF FORMATION =  195.74638 KCAL =  819.00230 KJ
C                0.4682     -0.2518     -0.8417
C               -0.0098      0.9590      1.2955
C               -1.5125     -0.9246      0.5251
C               -1.4531      0.4238      1.2666
C               -0.9483     -0.7893     -0.9093
C                0.5578      1.0758     -0.1422
H                0.6379      0.2796      1.9019
H               -0.9340     -1.6982      1.0875
H               -2.1205      1.1641      0.7592
H               -1.5544     -0.0438     -1.4911
H               -0.0545      1.8175     -0.7228
H                0.0072      1.9764      1.7612
H               -2.5763     -1.2650      0.4462
H               -1.8153      0.2839      2.3161
H               -1.0132     -1.7813     -1.4275
H                1.6119      1.4530     -0.0935
O                2.7790     -0.2784     -1.2585
N                1.3983     -0.9330     -1.3527
H                3.2841     -0.8623     -0.6734
H                3.2474     -0.6055     -2.4470
20
P12 HEAT OF FORMATION =  194.05735 KCAL =  811.93540 KJ
C                0.4682     -0.2542     -0.8416
C               -0.0106      0.9587      1.2942
C               -1.5137     -0.9250      0.5251
C               -1.4542      0.4241      1.2651
C               -0.9492     -0.7912     -0.9096
C                0.5579      1.0738     -0.1436
H                0.6366      0.2797      1.9016
H               -0.9357     -1.6983      1.0883
H               -2.1210      1.1642      0.7566
H               -1.5541     -0.0456     -1.4922
H               -0.0540      1.8150     -0.7254
H                0.0067      1.9767      1.7586
H               -2.5776     -1.2651      0.4460
H               -1.8169      0.2855      2.3146
H               -1.0142     -1.7836     -1.4269
H                1.6121      1.4506     -0.0946
O                2.7847     -0.2785     -1.2530
N                1.3977     -0.9371     -1.3515
H                3.2919     -0.8726     -0.6796
H                3.2455     -0.5768     -2.4320
20
P13 HEAT OF FORMATION =  192.37389 KCAL =  804.89181 KJ
C                0.4678     -0.2563     -0.8421
C               -0.0111      0.9581      1.2927
C               -1.5148     -0.9255      0.5248
C               -1.4547      0.4239      1.2638
C               -0.9505     -0.7928     -0.9102
C                0.5577      1.0721     -0.1455
H                0.6361      0.2795      1.9006
H               -0.9370     -1.6987      1.0883
H               -2.1213      1.1640      0.7550
H               -1.5545     -0.0467     -1.4932
H               -0.0542      1.8128     -0.7279
H                0.0066      1.9765      1.7561
H               -2.5788     -1.2653      0.4457
H               -1.8175      0.2862      2.3135
H               -1.0159     -1.7853     -1.4272
H                1.6119      1.4487     -0.0966
O                2.7901     -0.2779     -1.2486
N                1.3969     -0.9407     -1.3511
H                3.2983     -0.8788     -0.6827
H                3.2449     -0.5539     -2.4154
20
P14 HEAT OF FORMATION =  190.70175 KCAL =  797.89556 KJ
C                0.4674     -0.2584     -0.8427
C               -0.0114      0.9575      1.2910
C               -1.5159     -0.9260      0.5244
C               -1.4552      0.4238      1.2627
C               -0.9518     -0.7942     -0.9109
C                0.5574      1.0705     -0.1475
H                0.6357      0.2791      1.8992
H               -0.9384     -1.6993      1.0882
H               -2.1217      1.1638      0.7536
H               -1.5549     -0.0477     -1.4943
H               -0.0547      1.8106     -0.7306
H                0.0067      1.9763      1.7536
H               -2.5801     -1.2653      0.4454
H               -1.8178      0.2866      2.3125
H               -1.0176     -1.7869     -1.4275
H                1.6116      1.4471     -0.0989
O                2.7955     -0.2773     -1.2439
N                1.3961     -0.9444     -1.3505
H                3.3048     -0.8846     -0.6855
H                3.2442     -0.5312     -2.3983
20
P15 HEAT OF FORMATION =  189.04963 KCAL =  790.98311 KJ
C                0.4670     -0.2603     -0.8432
C               -0.0118      0.9570      1.2895
C               -1.5169     -0.9265      0.5240
C               -1.4557      0.4236      1.2614
C               -0.9531     -0.7956     -0.9117
C                0.5571      1.0689     -0.1494
H                0.6352      0.2791      1.8982
H               -0.9396     -1.6997      1.0881
H               -2.1221      1.1635      0.7521
H               -1.5552     -0.0487     -1.4953
H               -0.0550      1.8085     -0.7331
H                0.0065      1.9763      1.7510
H               -2.5811     -1.2656      0.4452
H               -1.8184      0.2872      2.3114
H               -1.0192     -1.7884     -1.4280
H                1.6115      1.4452     -0.1009
O                2.8010     -0.2770     -1.2394
N                1.3952     -0.9480     -1.3501
H                3.3115     -0.8909     -0.6889
H                3.2432     -0.5087     -2.3810
20
P16 HEAT OF FORMATION =  187.42674 KCAL =  784.19293 KJ
C                0.4666     -0.2624     -0.8438
C               -0.0121      0.9562      1.2880
C               -1.5181     -0.9269      0.5236
C               -1.4562      0.4235      1.2602
C               -0.9544     -0.7971     -0.9123
C                0.5569      1.0672     -0.1513
H                0.6348      0.2784      1.8969
H               -0.9412     -1.7002      1.0880
H               -2.1223      1.1635      0.7506
H               -1.5556     -0.0497     -1.4964
H               -0.0553      1.8063     -0.7356
H                0.0068      1.9758      1.7488
H               -2.5826     -1.2655      0.4448
H               -1.8189      0.2878      2.3103
H               -1.0208     -1.7901     -1.4282
H                1.6113      1.4435     -0.1031
O                2.8063     -0.2759     -1.2356
N                1.3944     -0.9513     -1.3498
H                3.3181     -0.8950     -0.6915
H                3.2424     -0.4881     -2.3637
20
P17 HEAT OF FORMATION =  185.84369 KCAL =  777.56944 KJ
C                0.4661     -0.2641     -0.8445
C               -0.0124      0.9557      1.2863
C               -1.5190     -0.9274      0.5231
C               -1.4566      0.4232      1.2592
C               -0.9558     -0.7983     -0.9133
C                0.5564      1.0659     -0.1534
H                0.6346      0.2782      1.8955
H               -0.9423     -1.7008      1.0875
H               -2.1228      1.1631      0.7496
H               -1.5561     -0.0504     -1.4974
H               -0.0561      1.8044     -0.7382
H                0.0067      1.9757      1.7462
H               -2.5836     -1.2657      0.4444
H               -1.8189      0.2878      2.3094
H               -1.0226     -1.7912     -1.4290
H                1.6108      1.4421     -0.1056
O                2.8119     -0.2755     -1.2310
N                1.3935     -0.9548     -1.3492
H                3.3246     -0.9004     -0.6940
H                3.2415     -0.4677     -2.3455
20
P18 HEAT OF FORMATION =  184.31128 KCAL =  771.15785 KJ
C                0.4657     -0.2663     -0.8451
C               -0.0128      0.9551      1.2848
C               -1.5201     -0.9277      0.5227
C               -1.4572      0.4231      1.2579
C               -0.9571     -0.7998     -0.9140
C                0.5562      1.0641     -0.1553
H                0.6341      0.2780      1.8945
H               -0.9437     -1.7011      1.0875
H               -2.1231      1.1631      0.7479
H               -1.5564     -0.0513     -1.4985
H               -0.0562      1.8020     -0.7409
H                0.0067      1.9756      1.7436
H               -2.5849     -1.2658      0.4442
H               -1.8195      0.2886      2.3082
H               -1.0244     -1.7928     -1.4294
H                1.6108      1.4401     -0.1077
O                2.8173     -0.2750     -1.2263
N                1.3928     -0.9584     -1.3486
H                3.3318     -0.9064     -0.6981
H                3.2399     -0.4450     -2.3275
20
P19 HEAT OF FORMATION =  182.84051 KCAL =  765.00417 KJ
C                0.4653     -0.2680     -0.8458
C               -0.0132      0.9543      1.2833
C               -1.5212     -0.9282      0.5222
C               -1.4576      0.4229      1.2567
C               -0.9584     -0.8010     -0.9148
C                0.5559      1.0626     -0.1572
H                0.6337      0.2774      1.8932
H               -0.9451     -1.7017      1.0872
H               -2.1234      1.1629      0.7466
H               -1.5568     -0.0521     -1.4996
H               -0.0566      1.8002     -0.7432
H                0.0069      1.9752      1.7414
H               -2.5861     -1.2658      0.4437
H               -1.8199      0.2889      2.3072
H               -1.0260     -1.7942     -1.4299
H                1.6106      1.4384     -0.1097
O                2.8228     -0.2739     -1.2231
N                1.3919     -0.9614     -1.3486
H                3.3382     -0.9093     -0.7002
H                3.2391     -0.4273     -2.3095
20
P20 HEAT OF FORMATION =  181.44540 KCAL =  759.16701 KJ
C                0.4648     -0.2699     -0.8465
C               -0.0135      0.9537      1.2817
C               -1.5222     -0.9286      0.5217
C               -1.4581      0.4227      1.2556
C               -0.9598     -0.8023     -0.9156
C                0.5556      1.0611     -0.1592
H                0.6334      0.2770      1.8918
H               -0.9464     -1.7022      1.0868
H               -2.1238      1.1627      0.7454
H               -1.5573     -0.0528     -1.5007
H               -0.0571      1.7981     -0.7457
H                0.0070      1.9749      1.7390
H               -2.5873     -1.2659      0.4433
H               -1.8202      0.2892      2.3062
H               -1.0277     -1.7955     -1.4305
H                1.6103      1.4368     -0.1121
O                2.8283     -0.2732     -1.2189
N                1.3911     -0.9647     -1.3482
H                3.3450     -0.9136     -0.7031
H                3.2378     -0.4077     -2.2908
20
P21 HEAT OF FORMATION =  180.13887 KCAL =  753.70051 KJ
C                0.4644     -0.2717     -0.8473
C               -0.0138      0.9531      1.2801
C               -1.5233     -0.9290      0.5212
C               -1.4585      0.4225      1.2544
C               -0.9612     -0.8034     -0.9165
C                0.5553      1.0596     -0.1611
H                0.6331      0.2766      1.8906
H               -0.9476     -1.7027      1.0864
H               -2.1241      1.1625      0.7440
H               -1.5577     -0.0534     -1.5017
H               -0.0575      1.7962     -0.7482
H                0.0070      1.9746      1.7367
H               -2.5885     -1.2660      0.4429
H               -1.8205      0.2896      2.3052
H               -1.0294     -1.7967     -1.4312
H                1.6101      1.4351     -0.1143
O                2.8337     -0.2723     -1.2152
N                1.3903     -0.9679     -1.3481
H                3.3518     -0.9172     -0.7058
H                3.2366     -0.3895     -2.2723
20
P22 HEAT OF FORMATION =  178.93543 KCAL =  748.66533 KJ
C                0.4639     -0.2735     -0.8481
C               -0.0141      0.9524      1.2786
C               -1.5243     -0.9295      0.5207
C               -1.4590      0.4222      1.2533
C               -0.9626     -0.8046     -0.9174
C                0.5550      1.0581     -0.1631
H                0.6328      0.2763      1.8893
H               -0.9488     -1.7032      1.0860
H               -2.1245      1.1623      0.7428
H               -1.5582     -0.0540     -1.5027
H               -0.0579      1.7942     -0.7507
H                0.0071      1.9744      1.7343
H               -2.5897     -1.2661      0.4425
H               -1.8208      0.2898      2.3042
H               -1.0312     -1.7979     -1.4319
H                1.6099      1.4333     -0.1165
O                2.8392     -0.2714     -1.2115
N                1.3895     -0.9710     -1.3479
H                3.3587     -0.9207     -0.7085
H                3.2353     -0.3714     -2.2534
20
P23 HEAT OF FORMATION =  177.85876 KCAL =  744.16054 KJ
C                0.4642     -0.2757     -0.8476
C               -0.0151      0.9515      1.2781
C               -1.5261     -0.9295      0.5207
C               -1.4605      0.4230      1.2516
C               -0.9629     -0.8070     -0.9171
C                0.5553      1.0560     -0.1634
H                0.6306      0.2750      1.8896
H               -0.9521     -1.7032      1.0875
H               -2.1245      1.1632      0.7392
H               -1.5573     -0.0569     -1.5045
H               -0.0567      1.7919     -0.7521
H                0.0069      1.9737      1.7332
H               -2.5918     -1.2651      0.4414
H               -1.8240      0.2925      2.3022
H               -1.0310     -1.8011     -1.4300
H                1.6106      1.4305     -0.1162
O                2.8455     -0.2698     -1.2101
N                1.3893     -0.9733     -1.3486
H                3.3665     -0.9253     -0.7162
H                3.2329     -0.3505     -2.2376
20
P24 HEAT OF FORMATION =  176.90019 KCAL =  740.14988 KJ
C                0.4630     -0.2770     -0.8496
C               -0.0147      0.9509      1.2756
C               -1.5266     -0.9302      0.5196
C               -1.4599      0.4219      1.2510
C               -0.9653     -0.8070     -0.9191
C                0.5544      1.0551     -0.1668
H                0.6320      0.2749      1.8867
H               -0.9518     -1.7042      1.0852
H               -2.1250      1.1622      0.7402
H               -1.5590     -0.0554     -1.5050
H               -0.0586      1.7904     -0.7553
H                0.0075      1.9734      1.7300
H               -2.5923     -1.2659      0.4414
H               -1.8216      0.2906      2.3021
H               -1.0345     -1.8004     -1.4330
H                1.6095      1.4298     -0.1207
O                2.8501     -0.2688     -1.2054
N                1.3879     -0.9769     -1.3477
H                3.3724     -0.9249     -0.7133
H                3.2327     -0.3385     -2.2160
20
P25 HEAT OF FORMATION =  176.10141 KCAL =  736.80777 KJ
C                0.4622     -0.2784     -0.8508
C               -0.0149      0.9504      1.2738
C               -1.5273     -0.9307      0.5189
C               -1.4601      0.4214      1.2501
C               -0.9671     -0.8078     -0.9203
C                0.5537      1.0539     -0.1692
H                0.6323      0.2748      1.8849
H               -0.9525     -1.7048      1.0842
H               -2.1255      1.1617      0.7397
H               -1.5600     -0.0554     -1.5059
H               -0.0596      1.7886     -0.7580
H                0.0076      1.9732      1.7273
H               -2.5932     -1.2662      0.4412
H               -1.8211      0.2902      2.3015
H               -1.0368     -1.8011     -1.4344
H                1.6089      1.4286     -0.1238
O                2.8555     -0.2682     -1.2011
N                1.3869     -0.9797     -1.3478
H                3.3789     -0.9281     -0.7148
H                3.2320     -0.3225     -2.1955
20
P26 HEAT OF FORMATION =  175.47425 KCAL =  734.18375 KJ
C                0.4617     -0.2802     -0.8515
C               -0.0152      0.9496      1.2723
C               -1.5285     -0.9310      0.5184
C               -1.4605      0.4211      1.2489
C               -0.9685     -0.8088     -0.9212
C                0.5534      1.0525     -0.1711
H                0.6319      0.2743      1.8835
H               -0.9539     -1.7053      1.0837
H               -2.1258      1.1616      0.7385
H               -1.5604     -0.0559     -1.5070
H               -0.0600      1.7868     -0.7603
H                0.0078      1.9728      1.7252
H               -2.5945     -1.2662      0.4407
H               -1.8214      0.2905      2.3005
H               -1.0384     -1.8022     -1.4351
H                1.6088      1.4269     -0.1259
O                2.8610     -0.2668     -1.1982
N                1.3861     -0.9827     -1.3476
H                3.3859     -0.9300     -0.7173
H                3.2306     -0.3070     -2.1765
20
P27 HEAT OF FORMATION =  175.03676 KCAL =  732.35328 KJ
C                0.4611     -0.2817     -0.8526
C               -0.0154      0.9488      1.2708
C               -1.5295     -0.9314      0.5177
C               -1.4609      0.4208      1.2479
C               -0.9700     -0.8098     -0.9222
C                0.5530      1.0511     -0.1731
H                0.6318      0.2736      1.8821
H               -0.9551     -1.7059      1.0830
H               -2.1261      1.1614      0.7376
H               -1.5611     -0.0561     -1.5080
H               -0.0605      1.7851     -0.7627
H                0.0080      1.9723      1.7230
H               -2.5957     -1.2662      0.4402
H               -1.8215      0.2905      2.2996
H               -1.0404     -1.8030     -1.4361
H                1.6085      1.4252     -0.1283
O                2.8664     -0.2654     -1.1954
N                1.3852     -0.9854     -1.3479
H                3.3926     -0.9308     -0.7185
H                3.2296     -0.2932     -2.1571
20
P28 HEAT OF FORMATION =  174.81149 KCAL =  731.41076 KJ
C                0.4605     -0.2833     -0.8536
C               -0.0156      0.9481      1.2692
C               -1.5305     -0.9318      0.5171
C               -1.4612      0.4205      1.2468
C               -0.9716     -0.8107     -0.9232
C                0.5526      1.0497     -0.1752
H                0.6317      0.2731      1.8805
H               -0.9562     -1.7064      1.0823
H               -2.1264      1.1612      0.7367
H               -1.5619     -0.0564     -1.5090
H               -0.0611      1.7833     -0.7651
H                0.0083      1.9719      1.7207
H               -2.5969     -1.2662      0.4398
H               -1.8215      0.2905      2.2987
H               -1.0423     -1.8039     -1.4370
H                1.6082      1.4236     -0.1307
O                2.8718     -0.2641     -1.1923
N                1.3843     -0.9881     -1.3481
H                3.3994     -0.9321     -0.7202
H                3.2286     -0.2789     -2.1374
20
P29 HEAT OF FORMATION =  174.82093 KCAL =  731.45025 KJ
C                0.4599     -0.2849     -0.8546
C               -0.0158      0.9474      1.2676
C               -1.5316     -0.9321      0.5165
C               -1.4616      0.4202      1.2458
C               -0.9731     -0.8117     -0.9242
C                0.5522      1.0483     -0.1772
H                0.6315      0.2725      1.8791
H               -0.9575     -1.7070      1.0817
H               -2.1267      1.1610      0.7357
H               -1.5625     -0.0567     -1.5101
H               -0.0616      1.7815     -0.7675
H                0.0086      1.9714      1.7185
H               -2.5981     -1.2662      0.4393
H               -1.8216      0.2907      2.2978
H               -1.0442     -1.8049     -1.4380
H                1.6080      1.4219     -0.1331
O                2.8772     -0.2627     -1.1894
N                1.3835     -0.9908     -1.3482
H                3.4064     -0.9333     -0.7220
H                3.2273     -0.2648     -2.1177
20
P30 HEAT OF FORMATION =  175.09001 KCAL =  732.57611 KJ
C                0.4595     -0.2865     -0.8551
C               -0.0164      0.9468      1.2664
C               -1.5327     -0.9325      0.5160
C               -1.4624      0.4202      1.2445
C               -0.9743     -0.8127     -0.9250
C                0.5520      1.0468     -0.1786
H                0.6306      0.2721      1.8783
H               -0.9588     -1.7073      1.0815
H               -2.1272      1.1610      0.7339
H               -1.5627     -0.0573     -1.5112
H               -0.0614      1.7798     -0.7696
H                0.0082      1.9712      1.7164
H               -2.5993     -1.2663      0.4387
H               -1.8227      0.2913      2.2966
H               -1.0456     -1.8060     -1.4385
H                1.6081      1.4198     -0.1344
O                2.8830     -0.2616     -1.1868
N                1.3827     -0.9934     -1.3482
H                3.4143     -0.9356     -0.7262
H                3.2252     -0.2498     -2.0987
