20
P1 HEAT OF FORMATION =  138.13368 KCAL =  577.95089 KJ
C                0.6926     -0.9146     -0.5643
C                0.7408      0.9736      0.9889
C               -1.7072      0.4124      0.5836
C               -0.6144      1.4573      0.5106
C               -1.7039     -0.5891     -0.5677
C                1.5175      0.2187     -0.0783
H                0.6246      0.3345      1.9037
H               -1.6471     -0.1346      1.5623
H               -0.5336      1.8580     -0.5344
H               -1.9738     -0.0736     -1.5378
H                1.7330      0.9035     -0.9470
H                1.3660      1.8626      1.2800
H               -2.7073      0.9274      0.5551
H               -0.9204      2.3198      1.1663
H               -2.4722     -1.3954     -0.3700
H                2.4959     -0.1617      0.3231
O                1.7394     -2.0794     -0.8254
N               -0.4715     -1.2878     -0.8001
H                2.4565     -1.7329     -1.3862
H                1.3851     -2.8984     -1.2624
20
P2 HEAT OF FORMATION =  138.70645 KCAL =  580.34736 KJ
C                0.6957     -0.9295     -0.5636
C                0.7401      0.9682      0.9873
C               -1.7069      0.4091      0.5849
C               -0.6166      1.4568      0.5196
C               -1.6985     -0.5842     -0.5729
C                1.5089      0.2204     -0.0895
H                0.6278      0.3228      1.8981
H               -1.6466     -0.1440      1.5602
H               -0.5400      1.8686     -0.5215
H               -1.9526     -0.0585     -1.5419
H                1.7010      0.9062     -0.9630
H                1.3678      1.8544      1.2817
H               -2.7082      0.9217      0.5584
H               -0.9211      2.3120      1.1855
H               -2.4786     -1.3829     -0.3897
H                2.4989     -0.1424      0.2995
O                1.7342     -2.0786     -0.8004
N               -0.4739     -1.2981     -0.7967
H                2.4774     -1.7139     -1.4099
H                1.3912     -2.9080     -1.2262
20
P3 HEAT OF FORMATION =  141.24891 KCAL =  590.98504 KJ
C                0.6980     -0.9438     -0.5613
C                0.7397      0.9635      0.9857
C               -1.7068      0.4062      0.5860
C               -0.6190      1.4563      0.5290
C               -1.6933     -0.5799     -0.5776
C                1.5004      0.2215     -0.1001
H                0.6320      0.3129      1.8933
H               -1.6477     -0.1525      1.5581
H               -0.5467      1.8801     -0.5076
H               -1.9314     -0.0448     -1.5456
H                1.6693      0.9067     -0.9787
H                1.3697      1.8474      1.2817
H               -2.7091      0.9169      0.5602
H               -0.9221      2.3033      1.2059
H               -2.4849     -1.3706     -0.4087
H                2.5014     -0.1244      0.2762
O                1.7303     -2.0790     -0.7766
N               -0.4764     -1.3084     -0.7925
H                2.4997     -1.6954     -1.4337
H                1.3969     -2.9161     -1.1939
20
P4 HEAT OF FORMATION =  145.22531 KCAL =  607.62227 KJ
C                0.6996     -0.9566     -0.5587
C                0.7392      0.9594      0.9843
C               -1.7069      0.4035      0.5872
C               -0.6212      1.4557      0.5375
C               -1.6889     -0.5762     -0.5816
C                1.4922      0.2221     -0.1093
H                0.6357      0.3044      1.8893
H               -1.6484     -0.1602      1.5565
H               -0.5528      1.8898     -0.4951
H               -1.9128     -0.0328     -1.5484
H                1.6409      0.9064     -0.9921
H                1.3714      1.8414      1.2815
H               -2.7100      0.9125      0.5622
H               -0.9230      2.2954      1.2238
H               -2.4905     -1.3594     -0.4252
H                2.5024     -0.1091      0.2555
O                1.7267     -2.0796     -0.7551
N               -0.4791     -1.3177     -0.7885
H                2.5234     -1.6766     -1.4575
H                1.4020     -2.9220     -1.1664
20
P5 HEAT OF FORMATION =  150.23615 KCAL =  628.58761 KJ
C                0.7006     -0.9690     -0.5558
C                0.7387      0.9555      0.9829
C               -1.7071      0.4008      0.5885
C               -0.6234      1.4551      0.5457
C               -1.6848     -0.5727     -0.5852
C                1.4841      0.2223     -0.1180
H                0.6395      0.2967      1.8856
H               -1.6494     -0.1676      1.5550
H               -0.5589      1.8993     -0.4828
H               -1.8944     -0.0214     -1.5507
H                1.6135      0.9051     -1.0048
H                1.3731      1.8358      1.2805
H               -2.7110      0.9082      0.5642
H               -0.9239      2.2875      1.2413
H               -2.4960     -1.3484     -0.4412
H                2.5027     -0.0949      0.2359
O                1.7236     -2.0805     -0.7347
N               -0.4819     -1.3270     -0.7841
H                2.5482     -1.6574     -1.4811
H                1.4067     -2.9272     -1.1410
20
P6 HEAT OF FORMATION =  155.91850 KCAL =  652.36254 KJ
C                0.7014     -0.9804     -0.5530
C                0.7382      0.9519      0.9816
C               -1.7073      0.3983      0.5898
C               -0.6255      1.4544      0.5534
C               -1.6811     -0.5695     -0.5884
C                1.4763      0.2220     -0.1259
H                0.6429      0.2896      1.8821
H               -1.6503     -0.1745      1.5538
H               -0.5647      1.9079     -0.4713
H               -1.8780     -0.0112     -1.5526
H                1.5882      0.9034     -1.0160
H                1.3747      1.8305      1.2795
H               -2.7119      0.9043      0.5662
H               -0.9247      2.2801      1.2575
H               -2.5010     -1.3384     -0.4556
H                2.5022     -0.0825      0.2180
O                1.7208     -2.0815     -0.7159
N               -0.4848     -1.3354     -0.7802
H                2.5740     -1.6376     -1.5049
H                1.4108     -2.9315     -1.1181
20
P7 HEAT OF FORMATION =  161.97430 KCAL =  677.69999 KJ
C                0.7017     -0.9917     -0.5498
C                0.7376      0.9486      0.9803
C               -1.7078      0.3958      0.5912
C               -0.6276      1.4536      0.5609
C               -1.6776     -0.5666     -0.5911
C                1.4685      0.2214     -0.1335
H                0.6463      0.2834      1.8791
H               -1.6513     -0.1810      1.5528
H               -0.5703      1.9158     -0.4601
H               -1.8617     -0.0015     -1.5538
H                1.5639      0.9011     -1.0267
H                1.3762      1.8258      1.2779
H               -2.7130      0.9004      0.5683
H               -0.9254      2.2729      1.2729
H               -2.5059     -1.3283     -0.4694
H                2.5012     -0.0709      0.2011
O                1.7180     -2.0825     -0.6987
N               -0.4880     -1.3439     -0.7757
H                2.6008     -1.6169     -1.5285
H                1.4143     -2.9354     -1.0972
20
P8 HEAT OF FORMATION =  168.16050 KCAL =  703.58305 KJ
C                0.7019     -1.0024     -0.5467
C                0.7371      0.9453      0.9792
C               -1.7082      0.3934      0.5927
C               -0.6296      1.4527      0.5681
C               -1.6744     -0.5639     -0.5937
C                1.4610      0.2206     -0.1405
H                0.6495      0.2772      1.8762
H               -1.6524     -0.1872      1.5519
H               -0.5756      1.9232     -0.4494
H               -1.8466      0.0076     -1.5549
H                1.5406      0.8984     -1.0365
H                1.3777      1.8210      1.2764
H               -2.7140      0.8969      0.5702
H               -0.9261      2.2659      1.2875
H               -2.5105     -1.3188     -0.4824
H                2.4998     -0.0602      0.1849
O                1.7156     -2.0835     -0.6825
N               -0.4911     -1.3518     -0.7716
H                2.6280     -1.5953     -1.5526
H                1.4173     -2.9393     -1.0765
20
P9 HEAT OF FORMATION =  174.28833 KCAL =  729.22188 KJ
C                0.7018     -1.0128     -0.5433
C                0.7366      0.9423      0.9778
C               -1.7086      0.3909      0.5943
C               -0.6317      1.4518      0.5751
C               -1.6713     -0.5611     -0.5961
C                1.4534      0.2195     -0.1474
H                0.6529      0.2719      1.8735
H               -1.6530     -0.1935      1.5512
H               -0.5813      1.9303     -0.4388
H               -1.8312      0.0168     -1.5556
H                1.5181      0.8952     -1.0459
H                1.3791      1.8169      1.2741
H               -2.7151      0.8930      0.5726
H               -0.9268      2.2589      1.3019
H               -2.5150     -1.3090     -0.4955
H                2.4978     -0.0504      0.1696
O                1.7133     -2.0848     -0.6673
N               -0.4944     -1.3596     -0.7674
H                2.6558     -1.5729     -1.5764
H                1.4196     -2.9433     -1.0562
20
P10 HEAT OF FORMATION =  180.22454 KCAL =  754.05893 KJ
C                0.7016     -1.0226     -0.5405
C                0.7360      0.9391      0.9767
C               -1.7092      0.3889      0.5957
C               -0.6335      1.4508      0.5816
C               -1.6687     -0.5589     -0.5980
C                1.4463      0.2181     -0.1537
H                0.6557      0.2663      1.8709
H               -1.6544     -0.1988      1.5506
H               -0.5860      1.9366     -0.4290
H               -1.8185      0.0243     -1.5560
H                1.4972      0.8919     -1.0543
H                1.3804      1.8123      1.2725
H               -2.7160      0.8902      0.5743
H               -0.9272      2.2524      1.3150
H               -2.5189     -1.3007     -0.5061
H                2.4955     -0.0416      0.1557
O                1.7111     -2.0857     -0.6543
N               -0.4977     -1.3666     -0.7638
H                2.6851     -1.5490     -1.6002
H                1.4212     -2.9471     -1.0373
20
P11 HEAT OF FORMATION =  185.88666 KCAL =  777.74922 KJ
C                0.7012     -1.0325     -0.5370
C                0.7355      0.9360      0.9754
C               -1.7097      0.3864      0.5972
C               -0.6354      1.4497      0.5884
C               -1.6658     -0.5564     -0.6003
C                1.4389      0.2167     -0.1602
H                0.6590      0.2612      1.8684
H               -1.6554     -0.2050      1.5499
H               -0.5913      1.9431     -0.4185
H               -1.8033      0.0330     -1.5563
H                1.4755      0.8884     -1.0629
H                1.3819      1.8082      1.2702
H               -2.7171      0.8866      0.5764
H               -0.9276      2.2453      1.3288
H               -2.5232     -1.2911     -0.5191
H                2.4932     -0.0329      0.1407
O                1.7095     -2.0867     -0.6409
N               -0.5010     -1.3740     -0.7596
H                2.7127     -1.5241     -1.6256
H                1.4224     -2.9519     -1.0150
20
P12 HEAT OF FORMATION =  191.23962 KCAL =  800.14603 KJ
C                0.7008     -1.0419     -0.5339
C                0.7350      0.9328      0.9742
C               -1.7104      0.3843      0.5987
C               -0.6372      1.4486      0.5948
C               -1.6631     -0.5543     -0.6021
C                1.4318      0.2151     -0.1664
H                0.6618      0.2557      1.8657
H               -1.6568     -0.2102      1.5494
H               -0.5960      1.9491     -0.4088
H               -1.7901      0.0403     -1.5563
H                1.4551      0.8847     -1.0709
H                1.3833      1.8037      1.2682
H               -2.7181      0.8837      0.5781
H               -0.9279      2.2388      1.3416
H               -2.5268     -1.2826     -0.5301
H                2.4905     -0.0248      0.1271
O                1.7079     -2.0877     -0.6293
N               -0.5044     -1.3808     -0.7557
H                2.7416     -1.4979     -1.6501
H                1.4230     -2.9566     -0.9944
20
P13 HEAT OF FORMATION =  196.27972 KCAL =  821.23378 KJ
C                0.7001     -1.0509     -0.5308
C                0.7346      0.9297      0.9730
C               -1.7111      0.3821      0.6001
C               -0.6389      1.4473      0.6012
C               -1.6607     -0.5522     -0.6040
C                1.4248      0.2134     -0.1725
H                0.6650      0.2505      1.8633
H               -1.6582     -0.2157      1.5488
H               -0.6008      1.9548     -0.3989
H               -1.7772      0.0477     -1.5562
H                1.4354      0.8809     -1.0787
H                1.3846      1.7995      1.2660
H               -2.7191      0.8807      0.5799
H               -0.9281      2.2318      1.3544
H               -2.5305     -1.2740     -0.5412
H                2.4877     -0.0173      0.1137
O                1.7064     -2.0886     -0.6188
N               -0.5078     -1.3873     -0.7521
H                2.7707     -1.4704     -1.6753
H                1.4228     -2.9620     -0.9718
20
P14 HEAT OF FORMATION =  201.02364 KCAL =  841.08231 KJ
C                0.6993     -1.0596     -0.5281
C                0.7341      0.9265      0.9718
C               -1.7117      0.3799      0.6015
C               -0.6404      1.4458      0.6072
C               -1.6586     -0.5503     -0.6056
C                1.4181      0.2115     -0.1782
H                0.6678      0.2454      1.8609
H               -1.6595     -0.2208      1.5484
H               -0.6052      1.9600     -0.3898
H               -1.7654      0.0544     -1.5559
H                1.4167      0.8771     -1.0857
H                1.3859      1.7953      1.2638
H               -2.7200      0.8780      0.5817
H               -0.9280      2.2252      1.3663
H               -2.5340     -1.2661     -0.5512
H                2.4847     -0.0107      0.1013
O                1.7050     -2.0894     -0.6099
N               -0.5112     -1.3935     -0.7489
H                2.8005     -1.4412     -1.7002
H                1.4219     -2.9676     -0.9495
20
P15 HEAT OF FORMATION =  205.49464 KCAL =  859.78896 KJ
C                0.6984     -1.0680     -0.5255
C                0.7336      0.9233      0.9707
C               -1.7124      0.3779      0.6030
C               -0.6419      1.4444      0.6128
C               -1.6566     -0.5486     -0.6069
C                1.4116      0.2094     -0.1839
H                0.6704      0.2402      1.8584
H               -1.6609     -0.2255      1.5481
H               -0.6093      1.9648     -0.3810
H               -1.7543      0.0606     -1.5554
H                1.3987      0.8733     -1.0921
H                1.3872      1.7909      1.2617
H               -2.7209      0.8755      0.5833
H               -0.9278      2.2188      1.3776
H               -2.5373     -1.2585     -0.5605
H                2.4815     -0.0047      0.0895
O                1.7037     -2.0904     -0.6024
N               -0.5147     -1.3993     -0.7458
H                2.8306     -1.4106     -1.7252
H                1.4204     -2.9734     -0.9266
20
P16 HEAT OF FORMATION =  209.71279 KCAL =  877.43771 KJ
C                0.6973     -1.0761     -0.5232
C                0.7332      0.9200      0.9694
C               -1.7132      0.3758      0.6044
C               -0.6433      1.4428      0.6184
C               -1.6549     -0.5470     -0.6083
C                1.4053      0.2072     -0.1894
H                0.6731      0.2351      1.8560
H               -1.6623     -0.2304      1.5478
H               -0.6134      1.9692     -0.3724
H               -1.7437      0.0667     -1.5547
H                1.3815      0.8695     -1.0984
H                1.3886      1.7866      1.2594
H               -2.7218      0.8730      0.5852
H               -0.9276      2.2124      1.3886
H               -2.5406     -1.2511     -0.5697
H                2.4783      0.0008      0.0783
O                1.7023     -2.0914     -0.5959
N               -0.5182     -1.4050     -0.7427
H                2.8611     -1.3786     -1.7499
H                1.4182     -2.9796     -0.9030
20
P17 HEAT OF FORMATION =  213.68975 KCAL =  894.07731 KJ
C                0.6962     -1.0840     -0.5210
C                0.7329      0.9167      0.9682
C               -1.7140      0.3738      0.6059
C               -0.6447      1.4411      0.6238
C               -1.6533     -0.5456     -0.6094
C                1.3991      0.2048     -0.1949
H                0.6758      0.2301      1.8536
H               -1.6638     -0.2350      1.5476
H               -0.6174      1.9734     -0.3639
H               -1.7332      0.0725     -1.5540
H                1.3649      0.8656     -1.1046
H                1.3899      1.7823      1.2570
H               -2.7227      0.8706      0.5869
H               -0.9272      2.2060      1.3993
H               -2.5439     -1.2439     -0.5787
H                2.4749      0.0057      0.0675
O                1.7011     -2.0925     -0.5905
N               -0.5218     -1.4105     -0.7397
H                2.8917     -1.3451     -1.7746
H                1.4156     -2.9860     -0.8787
20
P18 HEAT OF FORMATION =  217.42760 KCAL =  909.71645 KJ
C                0.6950     -1.0915     -0.5190
C                0.7325      0.9132      0.9669
C               -1.7148      0.3718      0.6072
C               -0.6458      1.4393      0.6290
C               -1.6519     -0.5443     -0.6106
C                1.3931      0.2024     -0.2002
H                0.6783      0.2248      1.8511
H               -1.6655     -0.2395      1.5474
H               -0.6211      1.9773     -0.3557
H               -1.7235      0.0778     -1.5532
H                1.3487      0.8618     -1.1104
H                1.3913      1.7777      1.2549
H               -2.7235      0.8685      0.5884
H               -0.9265      2.1996      1.4097
H               -2.5470     -1.2371     -0.5871
H                2.4715      0.0103      0.0569
O                1.6998     -2.0937     -0.5861
N               -0.5253     -1.4159     -0.7367
H                2.9221     -1.3101     -1.7992
H                1.4126     -2.9925     -0.8533
20
P19 HEAT OF FORMATION =  220.92140 KCAL =  924.33447 KJ
C                0.6937     -1.0988     -0.5172
C                0.7322      0.9096      0.9658
C               -1.7157      0.3700      0.6085
C               -0.6469      1.4374      0.6338
C               -1.6506     -0.5433     -0.6114
C                1.3873      0.1999     -0.2054
H                0.6805      0.2193      1.8487
H               -1.6675     -0.2434      1.5473
H               -0.6243      1.9808     -0.3480
H               -1.7145      0.0824     -1.5523
H                1.3331      0.8581     -1.1157
H                1.3927      1.7729      1.2530
H               -2.7243      0.8668      0.5896
H               -0.9257      2.1936      1.4193
H               -2.5499     -1.2308     -0.5946
H                2.4681      0.0143      0.0469
O                1.6985     -2.0951     -0.5829
N               -0.5289     -1.4211     -0.7336
H                2.9526     -1.2735     -1.8236
H                1.4093     -2.9990     -0.8282
20
P20 HEAT OF FORMATION =  224.16336 KCAL =  937.89884 KJ
C                0.6923     -1.1059     -0.5155
C                0.7319      0.9060      0.9646
C               -1.7165      0.3682      0.6099
C               -0.6478      1.4355      0.6384
C               -1.6495     -0.5424     -0.6121
C                1.3817      0.1972     -0.2105
H                0.6828      0.2139      1.8463
H               -1.6693     -0.2473      1.5473
H               -0.6274      1.9839     -0.3407
H               -1.7060      0.0867     -1.5512
H                1.3182      0.8544     -1.1208
H                1.3941      1.7682      1.2509
H               -2.7250      0.8650      0.5908
H               -0.9247      2.1876      1.4283
H               -2.5530     -1.2247     -0.6018
H                2.4647      0.0177      0.0375
O                1.6972     -2.0969     -0.5807
N               -0.5324     -1.4262     -0.7306
H                2.9831     -1.2355     -1.8474
H                1.4056     -3.0054     -0.8028
