18
M1
C                1.5476      0.0674     -0.1458
C                0.8733      1.3570      0.1597
C               -0.5873      1.4496     -0.2975
C               -1.5214      0.4970      0.4172
C               -1.3418     -0.7874      0.6543
O                2.7810     -0.1148      0.0842
H                1.4534      2.1501     -0.3081
H                0.9439      1.4993      1.2318
H               -0.9435      2.4417     -0.0619
H               -0.6722      1.3326     -1.3712
O               -2.6477      1.1955      0.7900
H               -2.1147     -1.3132      1.1868
C               -0.1849     -1.6694      0.2488
H                0.3709     -1.9745      1.1239
C                0.8179     -1.0566     -0.7769
H               -0.5808     -2.5631     -0.2185
H                0.2731     -0.7034     -1.6425
H                1.5331     -1.8084     -1.0739
