11
Frame 1
C -1.0738 0.6079 -0.0876
C 0.1503 -0.1239 -0.5523
C 1.4658 0.3740 -0.2580
H 0.0520 -1.1400 -0.8762
O 2.4269 0.5807 0.4126
O 1.0823 0.7011 -1.5190
H -0.8467 1.6310 0.1856
H -1.3358 -0.0224 0.7519
H -1.8392 0.6138 -0.8551
O -0.3767 -1.6048 1.0576
H 0.2949 -1.6174 1.7406
11
Frame 2
C -1.0833 0.6061 -0.0849
C 0.1306 -0.1340 -0.5666
C 1.4509 0.3460 -0.2501
H 0.0293 -1.1351 -0.9337
O 2.3826 0.5387 0.4682
O 1.1403 0.6685 -1.5280
H -0.8464 1.6292 0.1797
H -1.3150 -0.0247 0.7631
H -1.8728 0.6103 -0.8277
O -0.3509 -1.5686 1.0558
H 0.3347 -1.5365 1.7243
11
Frame 3
C -1.0910 0.6074 -0.0813
C 0.1139 -0.1433 -0.5728
C 1.4392 0.3260 -0.2471
H 0.0077 -1.1331 -0.9677
O 2.3402 0.5220 0.5120
O 1.1960 0.6211 -1.5418
H -0.8458 1.6293 0.1804
H -1.3057 -0.0224 0.7719
H -1.8940 0.6154 -0.8095
O -0.3310 -1.5374 1.0528
H 0.3705 -1.4850 1.7031
11
Frame 4
C -1.0970 0.6115 -0.0761
C 0.0998 -0.1517 -0.5718
C 1.4304 0.3102 -0.2433
H -0.0125 -1.1284 -0.9964
O 2.3000 0.5184 0.5517
O 1.2521 0.5639 -1.5531
H -0.8458 1.6357 0.1703
H -1.2991 -0.0072 0.7883
H -1.9143 0.6121 -0.7882
O -0.3186 -1.5125 1.0470
H 0.4050 -1.4520 1.6718
11
Frame 5
C -1.1003 0.6175 -0.0696
C 0.0872 -0.1615 -0.5668
C 1.4226 0.2963 -0.2387
H -0.0333 -1.1218 -1.0254
O 2.2560 0.5280 0.5911
O 1.3081 0.4981 -1.5605
H -0.8446 1.6465 0.1510
H -1.2925 0.0204 0.8121
H -1.9322 0.6032 -0.7644
O -0.3111 -1.4930 1.0398
H 0.4400 -1.4336 1.6315
11
Frame 6
C -1.1051 0.6237 -0.0638
C 0.0794 -0.1694 -0.5494
C 1.4209 0.2932 -0.2383
H -0.0499 -1.1124 -1.0409
O 2.2229 0.5625 0.6144
O 1.3612 0.4170 -1.5697
H -0.8448 1.6593 0.1386
H -1.3045 0.0521 0.8364
H -1.9441 0.6029 -0.7556
O -0.3108 -1.4744 1.0396
H 0.4748 -1.4545 1.5885
11
Frame 7
C -1.0992 0.6283 -0.0483
C 0.0750 -0.1767 -0.5414
C 1.4207 0.2777 -0.2231
H -0.0584 -1.0527 -1.1029
O 2.1764 0.5630 0.6595
O 1.4243 0.3561 -1.5435
H -0.8961 1.6455 0.0276
H -1.2279 0.1917 0.8737
H -1.9557 0.5225 -0.6322
O -0.3138 -1.5022 0.9830
H 0.4548 -1.4530 1.5474
11
Frame 8
C -1.0933 0.6328 -0.0328
C 0.0706 -0.1841 -0.5333
C 1.4204 0.2622 -0.2079
H -0.0669 -0.9930 -1.1649
O 2.1299 0.5634 0.7046
O 1.4875 0.2952 -1.5174
H -0.9475 1.6317 -0.0833
H -1.1512 0.3313 0.9110
H -1.9674 0.4420 -0.5087
O -0.3168 -1.5301 0.9263
H 0.4347 -1.4515 1.5064
11
Frame 9
C -1.0874 0.6373 -0.0173
C 0.0662 -0.1914 -0.5253
C 1.4202 0.2468 -0.1928
H -0.0755 -0.9332 -1.2269
O 2.0833 0.5639 0.7497
O 1.5506 0.2343 -1.4912
H -0.9988 1.6179 -0.1943
H -1.0746 0.4709 0.9483
H -1.9790 0.3616 -0.3853
O -0.3197 -1.5579 0.8697
H 0.4147 -1.4500 1.4653
11
Frame 10
C -1.0815 0.6419 -0.0019
C 0.0618 -0.1987 -0.5173
C 1.4199 0.2313 -0.1776
H -0.0840 -0.8735 -1.2888
O 2.0368 0.5643 0.7947
O 1.6137 0.1734 -1.4650
H -1.0501 1.6040 -0.3053
H -0.9980 0.6105 0.9856
H -1.9906 0.2812 -0.2619
O -0.3227 -1.5857 0.8130
H 0.3947 -1.4486 1.4242
11
Frame 11
C -1.0756 0.6464 0.0136
C 0.0574 -0.2061 -0.5092
C 1.4197 0.2158 -0.1624
H -0.0925 -0.8138 -1.3508
O 1.9903 0.5648 0.8398
O 1.6769 0.1125 -1.4389
H -1.1015 1.5902 -0.4162
H -0.9213 0.7501 1.0229
H -2.0023 0.2007 -0.1384
O -0.3257 -1.6136 0.7564
H 0.3746 -1.4471 1.3832
11
Frame 12
C -1.0697 0.6510 0.0291
C 0.0530 -0.2134 -0.5012
C 1.4194 0.2003 -0.1472
H -0.1010 -0.7541 -1.4128
O 1.9438 0.5652 0.8849
O 1.7400 0.0516 -1.4127
H -1.1528 1.5764 -0.5272
H -0.8447 0.8897 1.0602
H -2.0139 0.1203 -0.0150
O -0.3287 -1.6414 0.6997
H 0.3546 -1.4456 1.3421
11
Frame 13
C -1.0732 0.6537 0.0325
C 0.0464 -0.2177 -0.4944
C 1.4168 0.1960 -0.1497
H -0.1044 -0.7356 -1.4193
O 1.9290 0.5757 0.8843
O 1.7595 0.0091 -1.4015
H -1.1528 1.5745 -0.5318
H -0.8454 0.9017 1.0608
H -2.0202 0.1276 -0.0053
O -0.3144 -1.6460 0.6874
H 0.3586 -1.4390 1.3369
11
Frame 14
C -1.0767 0.6564 0.0360
C 0.0398 -0.2220 -0.4876
C 1.4143 0.1916 -0.1523
H -0.1078 -0.7171 -1.4257
O 1.9141 0.5862 0.8837
O 1.7790 -0.0334 -1.3902
H -1.1528 1.5726 -0.5364
H -0.8460 0.9137 1.0613
H -2.0265 0.1349 0.0045
O -0.3001 -1.6505 0.6751
H 0.3626 -1.4324 1.3317
11
Frame 15
C -1.0835 0.6632 0.0418
C 0.0270 -0.2289 -0.4745
C 1.4094 0.1837 -0.1575
H -0.1140 -0.6856 -1.4329
O 1.8859 0.6091 0.8797
O 1.8173 -0.1156 -1.3616
H -1.1536 1.5696 -0.5467
H -0.8478 0.9370 1.0617
H -2.0381 0.1500 0.0213
O -0.2786 -1.6527 0.6528
H 0.3760 -1.4296 1.3158
11
Frame 16
C -1.0870 0.6677 0.0478
C 0.0164 -0.2361 -0.4670
C 1.4057 0.1753 -0.1645
H -0.1191 -0.6628 -1.4398
O 1.8562 0.6339 0.8728
O 1.8573 -0.1880 -1.3304
H -1.1555 1.5665 -0.5525
H -0.8404 0.9552 1.0614
H -2.0453 0.1610 0.0415
O -0.2622 -1.6516 0.6263
H 0.3739 -1.4211 1.3045
11
Frame 17
C -1.0889 0.6724 0.0531
C 0.0066 -0.2430 -0.4614
C 1.4021 0.1673 -0.1711
H -0.1241 -0.6466 -1.4448
O 1.8257 0.6621 0.8634
O 1.8980 -0.2547 -1.2940
H -1.1581 1.5639 -0.5579
H -0.8285 0.9720 1.0597
H -2.0501 0.1713 0.0630
O -0.2525 -1.6470 0.5995
H 0.3700 -1.4176 1.2906
11
Frame 18
C -1.0885 0.6766 0.0582
C -0.0021 -0.2505 -0.4581
C 1.3988 0.1595 -0.1780
H -0.1309 -0.6365 -1.4487
O 1.7935 0.6944 0.8506
O 1.9397 -0.3152 -1.2534
H -1.1592 1.5622 -0.5611
H -0.8130 0.9854 1.0579
H -2.0522 0.1809 0.0835
O -0.2482 -1.6400 0.5725
H 0.3620 -1.4169 1.2765
11
Frame 19
C -1.0867 0.6805 0.0631
C -0.0100 -0.2585 -0.4553
C 1.3960 0.1520 -0.1847
H -0.1390 -0.6302 -1.4514
O 1.7619 0.7306 0.8334
O 1.9815 -0.3709 -1.2083
H -1.1583 1.5614 -0.5628
H -0.7963 0.9964 1.0564
H -2.0529 0.1905 0.1023
O -0.2473 -1.6323 0.5451
H 0.3512 -1.4195 1.2622
11
Frame 20
C -1.0837 0.6843 0.0679
C -0.0173 -0.2675 -0.4518
C 1.3931 0.1451 -0.1912
H -0.1489 -0.6269 -1.4521
O 1.7301 0.7729 0.8102
O 2.0231 -0.4224 -1.1581
H -1.1533 1.5618 -0.5630
H -0.7805 1.0049 1.0559
H -2.0531 0.2016 0.1175
O -0.2501 -1.6249 0.5182
H 0.3406 -1.4289 1.2466
11
Frame 21
C -1.0801 0.6887 0.0727
C -0.0246 -0.2776 -0.4461
C 1.3902 0.1385 -0.1969
H -0.1608 -0.6255 -1.4498
O 1.6988 0.8228 0.7789
O 2.0639 -0.4705 -1.1017
H -1.1428 1.5638 -0.5622
H -0.7678 1.0117 1.0570
H -2.0536 0.2151 0.1274
O -0.2567 -1.6183 0.4927
H 0.3335 -1.4486 1.2280
11
Frame 22
C -1.0765 0.6952 0.0774
C -0.0328 -0.2894 -0.4343
C 1.3859 0.1329 -0.2002
H -0.1750 -0.6252 -1.4413
O 1.6669 0.8863 0.7350
O 2.1028 -0.5169 -1.0351
H -1.1234 1.5678 -0.5623
H -0.7622 1.0196 1.0605
H -2.0566 0.2350 0.1295
O -0.2700 -1.6135 0.4714
H 0.3409 -1.4916 1.1994
11
Frame 23
C -1.0830 0.7097 0.0763
C -0.0394 -0.2893 -0.4019
C 1.3812 0.1351 -0.1807
H -0.1782 -0.6335 -1.4064
O 1.6597 0.9348 0.7065
O 2.1053 -0.5434 -0.9794
H -1.1174 1.5627 -0.5868
H -0.7775 1.0584 1.0524
H -2.0659 0.2557 0.1291
O -0.2699 -1.5978 0.5161
H 0.3852 -1.5922 1.0750
11
Frame 24
C -1.0896 0.7242 0.0752
C -0.0460 -0.2893 -0.3695
C 1.3764 0.1372 -0.1613
H -0.1815 -0.6417 -1.3715
O 1.6526 0.9834 0.6779
O 2.1078 -0.5699 -0.9237
H -1.1114 1.5576 -0.6113
H -0.7927 1.0973 1.0442
H -2.0752 0.2764 0.1287
O -0.2699 -1.5821 0.5607
H 0.4295 -1.6929 0.9506
11
Frame 25
C -1.0961 0.7386 0.0742
C -0.0526 -0.2892 -0.3372
C 1.3717 0.1394 -0.1418
H -0.1847 -0.6500 -1.3367
O 1.6454 1.0319 0.6494
O 2.1102 -0.5963 -0.8680
H -1.1053 1.5524 -0.6358
H -0.8080 1.1361 1.0361
H -2.0845 0.2970 0.1284
O -0.2698 -1.5663 0.6054
H 0.4738 -1.7935 0.8261
11
Frame 26
C -1.1027 0.7531 0.0731
C -0.0592 -0.2892 -0.3048
C 1.3669 0.1415 -0.1224
H -0.1880 -0.6582 -1.3018
O 1.6383 1.0805 0.6208
O 2.1127 -0.6228 -0.8123
H -1.0993 1.5473 -0.6603
H -0.8232 1.1750 1.0279
H -2.0938 0.3177 0.1280
O -0.2698 -1.5506 0.6500
H 0.5181 -1.8942 0.7017
11
Frame 27
C -1.1092 0.7676 0.0720
C -0.0658 -0.2891 -0.2724
C 1.3622 0.1437 -0.1029
H -0.1912 -0.6665 -1.2669
O 1.6311 1.1290 0.5923
O 2.1152 -0.6493 -0.7566
H -1.0933 1.5422 -0.6848
H -0.8385 1.2138 1.0198
H -2.1031 0.3384 0.1276
O -0.2697 -1.5349 0.6947
H 0.5624 -1.9948 0.5773
11
Frame 28
C -1.1060 0.7667 0.0793
C -0.0749 -0.3023 -0.2675
C 1.3592 0.1286 -0.1091
H -0.2098 -0.6611 -1.2680
O 1.6002 1.1683 0.5186
O 2.1518 -0.6861 -0.6740
H -1.0595 1.5560 -0.6609
H -0.8493 1.1910 1.0410
H -2.1076 0.3530 0.1052
O -0.2717 -1.5309 0.6676
H 0.5676 -1.9833 0.5678
11
Frame 29
C -1.1017 0.7655 0.0848
C -0.0818 -0.3152 -0.2641
C 1.3574 0.1144 -0.1137
H -0.2244 -0.6561 -1.2698
O 1.5715 1.1938 0.4585
O 2.1874 -0.7030 -0.6092
H -1.0241 1.5695 -0.6366
H -0.8614 1.1659 1.0608
H -2.1098 0.3670 0.0792
O -0.2785 -1.5265 0.6424
H 0.5654 -1.9754 0.5677
11
Frame 30
C -1.0969 0.7636 0.0905
C -0.0880 -0.3284 -0.2601
C 1.3562 0.1001 -0.1179
H -0.2376 -0.6492 -1.2715
O 1.5431 1.2173 0.3929
O 2.2228 -0.7134 -0.5438
H -0.9871 1.5818 -0.6104
H -0.8760 1.1393 1.0808
H -2.1104 0.3808 0.0521
O -0.2868 -1.5231 0.6164
H 0.5607 -1.9690 0.5710
