38
Frame 1
H -1.5243 1.4866 0.7946
C -0.5141 1.0593 1.0115
C 0.8405 -0.6275 2.1843
C 1.6542 0.3305 -0.0184
C 1.6575 -0.8835 0.9317
C 0.2055 0.7941 -0.2950
C -0.5813 -0.1994 1.8493
H 1.3391 0.1882 2.7725
O 2.4343 1.3318 0.5917
H 1.2692 -1.7849 0.3931
C -0.5098 -0.2604 -1.1445
H -1.0606 -1.0475 1.2967
H 0.0631 1.8871 1.5450
H 0.8202 -1.5534 2.8153
H 2.7186 -1.0914 1.2263
H 0.2541 1.7709 -0.8557
H -1.1624 -0.0180 2.7880
H -0.4641 -1.2730 -0.6417
C 0.1586 -0.3760 -2.5093
O -1.8818 0.0821 -1.3139
C 1.5684 -0.8893 -2.2934
H 0.1738 0.6264 -3.0073
H -0.4188 -1.0773 -3.1630
C 2.3566 -0.0098 -1.3492
H 2.0969 -0.9383 -3.2817
H 1.5229 -1.9357 -1.8897
H 3.3359 -0.5008 -1.1136
H 2.5841 0.9665 -1.8544
S -3.0866 -0.9211 -0.7866
O -4.1944 -0.5409 -1.5346
O -2.6109 -2.2237 -0.9045
C -3.3406 -0.5516 0.8347
H -4.4386 -0.4599 1.0479
H -2.9085 0.4225 1.1731
H -2.9609 -1.3372 1.5336
H 1.9542 2.1748 0.6334
H 1.5657 3.8927 1.6171
O 1.0841 3.4872 0.9169
38
Frame 2
H -1.5252 1.4846 0.7983
C -0.5148 1.0570 1.0140
C 0.8397 -0.6314 2.1849
C 1.6553 0.3328 -0.0148
C 1.6573 -0.8845 0.9322
C 0.2048 0.7932 -0.2929
C -0.5821 -0.2032 1.8501
H 1.3380 0.1833 2.7747
O 2.4290 1.3333 0.5956
H 1.2693 -1.7848 0.3917
C -0.5095 -0.2614 -1.1426
H -1.0608 -1.0503 1.2957
H 0.0623 1.8808 1.5503
H 0.8191 -1.5583 2.8143
H 2.7182 -1.0931 1.2270
H 0.2521 1.7695 -0.8543
H -1.1639 -0.0235 2.7887
H -0.4642 -1.2742 -0.6403
C 0.1594 -0.3764 -2.5072
O -1.8817 0.0811 -1.3128
C 1.5698 -0.8880 -2.2909
H 0.1737 0.6259 -3.0053
H -0.4171 -1.0784 -3.1609
C 2.3568 -0.0076 -1.3468
H 2.0982 -0.9368 -3.2793
H 1.5253 -1.9344 -1.8871
H 3.3367 -0.4975 -1.1115
H 2.5831 0.9688 -1.8521
S -3.0870 -0.9226 -0.7892
O -4.1947 -0.5390 -1.5356
O -2.6131 -2.2255 -0.9105
C -3.3404 -0.5575 0.8334
H -4.4384 -0.4675 1.0474
H -2.9090 0.4161 1.1738
H -2.9598 -1.3447 1.5300
H 1.9342 2.2072 0.6293
H 1.5858 3.9052 1.5986
O 1.0937 3.5019 0.9045
38
Frame 3
H -1.5261 1.4826 0.8019
C -0.5155 1.0547 1.0165
C 0.8389 -0.6353 2.1854
C 1.6565 0.3351 -0.0112
C 1.6571 -0.8855 0.9326
C 0.2041 0.7922 -0.2907
C -0.5829 -0.2070 1.8508
H 1.3368 0.1784 2.7770
O 2.4236 1.3348 0.5996
H 1.2694 -1.7848 0.3902
C -0.5092 -0.2624 -1.1407
H -1.0610 -1.0531 1.2946
H 0.0614 1.8746 1.5556
H 0.8181 -1.5632 2.8133
H 2.7178 -1.0947 1.2276
H 0.2500 1.7680 -0.8528
H -1.1655 -0.0290 2.7893
H -0.4644 -1.2754 -0.6389
C 0.1603 -0.3768 -2.5051
O -1.8817 0.0802 -1.3116
C 1.5712 -0.8868 -2.2884
H 0.1736 0.6254 -3.0034
H -0.4154 -1.0795 -3.1588
C 2.3571 -0.0054 -1.3444
H 2.0994 -0.9354 -3.2769
H 1.5276 -1.9332 -1.8845
H 3.3375 -0.4942 -1.1093
H 2.5822 0.9712 -1.8498
S -3.0874 -0.9242 -0.7918
O -4.1951 -0.5372 -1.5367
O -2.6153 -2.2274 -0.9165
C -3.3402 -0.5633 0.8322
H -4.4382 -0.4750 1.0469
H -2.9095 0.4097 1.1746
H -2.9587 -1.3522 1.5263
H 1.9142 2.2397 0.6251
H 1.6059 3.9176 1.5801
O 1.1033 3.5165 0.8920
38
Frame 4
H -1.5271 1.4807 0.8056
C -0.5163 1.0525 1.0191
C 0.8382 -0.6391 2.1860
C 1.6576 0.3375 -0.0075
C 1.6569 -0.8865 0.9331
C 0.2034 0.7913 -0.2886
C -0.5838 -0.2107 1.8516
H 1.3357 0.1735 2.7792
O 2.4183 1.3364 0.6035
H 1.2695 -1.7847 0.3888
C -0.5088 -0.2635 -1.1389
H -1.0611 -1.0560 1.2936
H 0.0606 1.8683 1.5609
H 0.8170 -1.5682 2.8124
H 2.7174 -1.0964 1.2283
H 0.2480 1.7666 -0.8514
H -1.1670 -0.0344 2.7900
H -0.4645 -1.2766 -0.6376
C 0.1611 -0.3773 -2.5029
O -1.8816 0.0792 -1.3105
C 1.5725 -0.8855 -2.2860
H 0.1734 0.6250 -3.0014
H -0.4138 -1.0806 -3.1568
C 2.3573 -0.0031 -1.3420
H 2.1007 -0.9339 -3.2746
H 1.5300 -1.9319 -1.8819
H 3.3383 -0.4908 -1.1072
H 2.5812 0.9735 -1.8476
S -3.0878 -0.9257 -0.7945
O -4.1954 -0.5353 -1.5377
O -2.6175 -2.2292 -0.9225
C -3.3401 -0.5692 0.8309
H -4.4379 -0.4826 1.0463
H -2.9101 0.4034 1.1753
H -2.9576 -1.3598 1.5227
H 1.8943 2.2721 0.6210
H 1.6259 3.9301 1.5616
O 1.1129 3.5312 0.8796
38
Frame 5
H -1.5280 1.4787 0.8092
C -0.5170 1.0502 1.0216
C 0.8374 -0.6430 2.1865
C 1.6588 0.3398 -0.0039
C 1.6567 -0.8875 0.9335
C 0.2027 0.7903 -0.2864
C -0.5846 -0.2145 1.8523
H 1.3345 0.1686 2.7815
O 2.4129 1.3379 0.6075
H 1.2696 -1.7847 0.3873
C -0.5085 -0.2645 -1.1370
H -1.0613 -1.0588 1.2925
H 0.0597 1.8621 1.5662
H 0.8160 -1.5731 2.8114
H 2.7170 -1.0980 1.2289
H 0.2459 1.7651 -0.8499
H -1.1686 -0.0399 2.7906
H -0.4647 -1.2778 -0.6362
C 0.1620 -0.3777 -2.5008
O -1.8816 0.0783 -1.3093
C 1.5739 -0.8843 -2.2835
H 0.1733 0.6245 -2.9995
H -0.4121 -1.0817 -3.1547
C 2.3576 -0.0009 -1.3396
H 2.1019 -0.9325 -3.2722
H 1.5323 -1.9307 -1.8793
H 3.3391 -0.4875 -1.1050
H 2.5803 0.9759 -1.8453
S -3.0882 -0.9273 -0.7971
O -4.1958 -0.5335 -1.5388
O -2.6197 -2.2311 -0.9285
C -3.3399 -0.5750 0.8297
H -4.4377 -0.4901 1.0458
H -2.9106 0.3970 1.1761
H -2.9565 -1.3673 1.5190
H 1.8743 2.3046 0.6168
H 1.6460 3.9425 1.5431
O 1.1225 3.5458 0.8671
38
Frame 6
H -1.5289 1.4767 0.8129
C -0.5177 1.0479 1.0241
C 0.8366 -0.6469 2.1871
C 1.6599 0.3421 -0.0003
C 1.6565 -0.8885 0.9340
C 0.2020 0.7894 -0.2843
C -0.5854 -0.2183 1.8531
H 1.3334 0.1637 2.7837
O 2.4076 1.3394 0.6114
H 1.2697 -1.7846 0.3859
C -0.5082 -0.2655 -1.1351
H -1.0615 -1.0616 1.2915
H 0.0589 1.8558 1.5715
H 0.8149 -1.5780 2.8104
H 2.7166 -1.0997 1.2296
H 0.2439 1.7637 -0.8485
H -1.1701 -0.0454 2.7913
H -0.4648 -1.2790 -0.6348
C 0.1628 -0.3781 -2.4987
O -1.8815 0.0773 -1.3082
C 1.5753 -0.8830 -2.2810
H 0.1732 0.6240 -2.9975
H -0.4104 -1.0828 -3.1526
C 2.3578 0.0013 -1.3372
H 2.1032 -0.9310 -3.2698
H 1.5347 -1.9294 -1.8767
H 3.3399 -0.4842 -1.1029
H 2.5793 0.9782 -1.8430
S -3.0886 -0.9288 -0.7997
O -4.1961 -0.5316 -1.5398
O -2.6219 -2.2329 -0.9345
C -3.3397 -0.5809 0.8284
H -4.4375 -0.4977 1.0453
H -2.9111 0.3906 1.1768
H -2.9554 -1.3748 1.5154
H 1.8543 2.3370 0.6127
H 1.6661 3.9550 1.5246
O 1.1321 3.5605 0.8547
38
Frame 7
H -1.5302 1.4740 0.8197
C -0.5190 1.0443 1.0289
C 0.8350 -0.6534 2.1886
C 1.6603 0.3437 0.0055
C 1.6555 -0.8911 0.9353
C 0.2004 0.7882 -0.2802
C -0.5869 -0.2241 1.8551
H 1.3316 0.1555 2.7875
O 2.4004 1.3400 0.6192
H 1.2690 -1.7856 0.3844
C -0.5084 -0.2658 -1.1325
H -1.0623 -1.0659 1.2909
H 0.0586 1.8480 1.5791
H 0.8128 -1.5860 2.8096
H 2.7153 -1.1034 1.2310
H 0.2415 1.7626 -0.8440
H -1.1724 -0.0537 2.7932
H -0.4658 -1.2799 -0.6337
C 0.1637 -0.3764 -2.4957
O -1.8818 0.0774 -1.3066
C 1.5768 -0.8798 -2.2776
H 0.1733 0.6261 -2.9937
H -0.4084 -1.0813 -3.1505
C 2.3579 0.0047 -1.3328
H 2.1049 -0.9267 -3.2664
H 1.5372 -1.9266 -1.8741
H 3.3406 -0.4797 -1.0993
H 2.5778 0.9824 -1.8376
S -3.0897 -0.9295 -0.8032
O -4.1974 -0.5271 -1.5404
O -2.6253 -2.2337 -0.9442
C -3.3397 -0.5887 0.8270
H -4.4374 -0.5072 1.0450
H -2.9115 0.3818 1.1787
H -2.9544 -1.3853 1.5102
H 1.8370 2.3643 0.6083
H 1.6975 3.9810 1.4818
O 1.1438 3.5769 0.8335
38
Frame 8
H -1.5314 1.4721 0.8258
C -0.5205 1.0408 1.0329
C 0.8322 -0.6606 2.1891
C 1.6607 0.3456 0.0107
C 1.6543 -0.8937 0.9359
C 0.1988 0.7869 -0.2768
C -0.5895 -0.2299 1.8558
H 1.3283 0.1460 2.7915
O 2.3932 1.3410 0.6264
H 1.2690 -1.7867 0.3817
C -0.5081 -0.2668 -1.1303
H -1.0648 -1.0698 1.2888
H 0.0584 1.8399 1.5864
H 0.8088 -1.5955 2.8068
H 2.7138 -1.1063 1.2323
H 0.2386 1.7612 -0.8405
H -1.1756 -0.0619 2.7939
H -0.4644 -1.2817 -0.6333
C 0.1646 -0.3743 -2.4936
O -1.8823 0.0745 -1.3046
C 1.5785 -0.8754 -2.2758
H 0.1725 0.6290 -2.9901
H -0.4061 -1.0792 -3.1495
C 2.3579 0.0087 -1.3291
H 2.1068 -0.9197 -3.2646
H 1.5405 -1.9230 -1.8741
H 3.3412 -0.4749 -1.0962
H 2.5767 0.9874 -1.8324
S -3.0889 -0.9343 -0.8037
O -4.1964 -0.5337 -1.5424
O -2.6232 -2.2381 -0.9431
C -3.3418 -0.5928 0.8261
H -4.4399 -0.5113 1.0421
H -2.9140 0.3777 1.1779
H -2.9577 -1.3892 1.5103
H 1.8199 2.3919 0.6035
H 1.7318 4.0024 1.4456
O 1.1582 3.5936 0.8168
38
Frame 9
H -1.5333 1.4702 0.8307
C -0.5222 1.0379 1.0357
C 0.8303 -0.6650 2.1898
C 1.6607 0.3481 0.0147
C 1.6534 -0.8945 0.9367
C 0.1965 0.7857 -0.2745
C -0.5913 -0.2343 1.8566
H 1.3257 0.1405 2.7944
O 2.3858 1.3435 0.6309
H 1.2691 -1.7865 0.3804
C -0.5084 -0.2682 -1.1286
H -1.0659 -1.0733 1.2877
H 0.0579 1.8336 1.5914
H 0.8067 -1.6011 2.8056
H 2.7128 -1.1073 1.2334
H 0.2349 1.7595 -0.8388
H -1.1783 -0.0682 2.7945
H -0.4646 -1.2834 -0.6324
C 0.1651 -0.3741 -2.4915
O -1.8831 0.0723 -1.3038
C 1.5798 -0.8729 -2.2733
H 0.1718 0.6294 -2.9877
H -0.4042 -1.0796 -3.1481
C 2.3576 0.0119 -1.3261
H 2.1082 -0.9163 -3.2621
H 1.5432 -1.9207 -1.8720
H 3.3414 -0.4705 -1.0934
H 2.5750 0.9910 -1.8291
S -3.0895 -0.9376 -0.8059
O -4.1970 -0.5354 -1.5436
O -2.6243 -2.2414 -0.9476
C -3.3426 -0.5990 0.8247
H -4.4408 -0.5185 1.0407
H -2.9153 0.3711 1.1778
H -2.9582 -1.3964 1.5075
H 1.8022 2.4208 0.5979
H 1.7655 4.0169 1.4218
O 1.1753 3.6118 0.8057
38
Frame 10
H -1.5356 1.4683 0.8346
C -0.5243 1.0355 1.0377
C 0.8288 -0.6680 2.1904
C 1.6607 0.3513 0.0182
C 1.6527 -0.8943 0.9374
C 0.1941 0.7847 -0.2729
C -0.5930 -0.2378 1.8573
H 1.3233 0.1365 2.7969
O 2.3782 1.3470 0.6341
H 1.2692 -1.7855 0.3792
C -0.5089 -0.2698 -1.1272
H -1.0668 -1.0763 1.2872
H 0.0569 1.8283 1.5950
H 0.8052 -1.6053 2.8045
H 2.7119 -1.1072 1.2343
H 0.2308 1.7578 -0.8381
H -1.1806 -0.0730 2.7951
H -0.4650 -1.2850 -0.6311
C 0.1655 -0.3751 -2.4897
O -1.8841 0.0698 -1.3036
C 1.5810 -0.8714 -2.2707
H 0.1707 0.6280 -2.9864
H -0.4024 -1.0819 -3.1461
C 2.3570 0.0153 -1.3238
H 2.1094 -0.9146 -3.2596
H 1.5460 -1.9191 -1.8689
H 3.3418 -0.4652 -1.0913
H 2.5724 0.9945 -1.8272
S -3.0904 -0.9407 -0.8084
O -4.1983 -0.5364 -1.5446
O -2.6263 -2.2446 -0.9528
C -3.3431 -0.6055 0.8232
H -4.4412 -0.5265 1.0398
H -2.9164 0.3643 1.1776
H -2.9577 -1.4040 1.5042
H 1.7853 2.4511 0.5898
H 1.7975 4.0239 1.4098
O 1.1955 3.6313 0.7961
38
Frame 11
H -1.5375 1.4663 0.8411
C -0.5262 1.0322 1.0415
C 0.8267 -0.6734 2.1916
C 1.6604 0.3540 0.0235
C 1.6515 -0.8956 0.9385
C 0.1913 0.7833 -0.2698
C -0.5951 -0.2428 1.8587
H 1.3206 0.1295 2.8007
O 2.3692 1.3497 0.6409
H 1.2689 -1.7855 0.3777
C -0.5095 -0.2711 -1.1251
H -1.0682 -1.0803 1.2866
H 0.0572 1.8212 1.6007
H 0.8026 -1.6123 2.8032
H 2.7106 -1.1089 1.2357
H 0.2265 1.7562 -0.8352
H -1.1833 -0.0802 2.7965
H -0.4656 -1.2868 -0.6301
C 0.1662 -0.3745 -2.4871
O -1.8851 0.0676 -1.3027
C 1.5826 -0.8679 -2.2675
H 0.1697 0.6290 -2.9833
H -0.3998 -1.0820 -3.1443
C 2.3567 0.0197 -1.3199
H 2.1113 -0.9097 -3.2564
H 1.5495 -1.9158 -1.8664
H 3.3423 -0.4591 -1.0878
H 2.5701 0.9997 -1.8225
S -3.0913 -0.9437 -0.8107
O -4.1994 -0.5371 -1.5455
O -2.6283 -2.2477 -0.9580
C -3.3440 -0.6121 0.8219
H -4.4420 -0.5341 1.0387
H -2.9175 0.3571 1.1779
H -2.9582 -1.4119 1.5010
H 1.7717 2.4823 0.5752
H 1.8262 4.0323 1.3893
O 1.2191 3.6525 0.7716
38
Frame 12
H -1.5391 1.4667 0.8400
C -0.5275 1.0329 1.0395
C 0.8268 -0.6706 2.1910
C 1.6606 0.3575 0.0228
C 1.6518 -0.8927 0.9381
C 0.1895 0.7831 -0.2719
C -0.5954 -0.2414 1.8579
H 1.3201 0.1330 2.7997
O 2.3644 1.3545 0.6378
H 1.2697 -1.7830 0.3777
C -0.5100 -0.2733 -1.1253
H -1.0678 -1.0798 1.2865
H 0.0567 1.8213 1.5982
H 0.8033 -1.6091 2.8033
H 2.7109 -1.1052 1.2354
H 0.2230 1.7545 -0.8396
H -1.1838 -0.0784 2.7955
H -0.4657 -1.2882 -0.6287
C 0.1657 -0.3785 -2.4871
O -1.8862 0.0642 -1.3038
C 1.5828 -0.8695 -2.2667
H 0.1679 0.6240 -2.9853
H -0.3994 -1.0881 -3.1428
C 2.3559 0.0210 -1.3211
H 2.1112 -0.9128 -3.2557
H 1.5511 -1.9167 -1.8634
H 3.3423 -0.4561 -1.0886
H 2.5678 1.0002 -1.8258
S -3.0918 -0.9471 -0.8116
O -4.2005 -0.5403 -1.5456
O -2.6294 -2.2512 -0.9590
C -3.3437 -0.6153 0.8213
H -4.4417 -0.5383 1.0387
H -2.9179 0.3544 1.1765
H -2.9568 -1.4146 1.5002
H 1.7619 2.5053 0.5645
H 1.8353 4.0123 1.4207
O 1.2378 3.6655 0.7769
38
Frame 13
H -1.5407 1.4671 0.8390
C -0.5287 1.0336 1.0375
C 0.8270 -0.6678 2.1905
C 1.6608 0.3609 0.0221
C 1.6520 -0.8897 0.9376
C 0.1876 0.7828 -0.2741
C -0.5957 -0.2401 1.8571
H 1.3195 0.1366 2.7986
O 2.3595 1.3594 0.6347
H 1.2705 -1.7806 0.3778
C -0.5106 -0.2756 -1.1255
H -1.0674 -1.0792 1.2865
H 0.0563 1.8213 1.5958
H 0.8041 -1.6059 2.8035
H 2.7112 -1.1016 1.2350
H 0.2196 1.7527 -0.8440
H -1.1843 -0.0767 2.7945
H -0.4658 -1.2895 -0.6273
C 0.1653 -0.3825 -2.4871
O -1.8872 0.0608 -1.3048
C 1.5831 -0.8712 -2.2658
H 0.1660 0.6189 -2.9874
H -0.3991 -1.0941 -3.1414
C 2.3552 0.0222 -1.3223
H 2.1110 -0.9159 -3.2551
H 1.5528 -1.9175 -1.8605
H 3.3423 -0.4531 -1.0895
H 2.5654 1.0006 -1.8290
S -3.0923 -0.9504 -0.8125
O -4.2015 -0.5434 -1.5458
O -2.6304 -2.2547 -0.9601
C -3.3435 -0.6185 0.8206
H -4.4414 -0.5426 1.0388
H -2.9182 0.3517 1.1752
H -2.9553 -1.4174 1.4995
H 1.7521 2.5284 0.5537
H 1.8443 3.9923 1.4521
O 1.2565 3.6785 0.7822
38
Frame 14
H -1.5423 1.4675 0.8379
C -0.5300 1.0343 1.0355
C 0.8271 -0.6650 2.1899
C 1.6610 0.3644 0.0214
C 1.6523 -0.8868 0.9372
C 0.1858 0.7826 -0.2762
C -0.5960 -0.2387 1.8563
H 1.3190 0.1401 2.7976
O 2.3547 1.3642 0.6316
H 1.2713 -1.7781 0.3778
C -0.5111 -0.2778 -1.1257
H -1.0670 -1.0787 1.2864
H 0.0558 1.8214 1.5933
H 0.8048 -1.6027 2.8036
H 2.7115 -1.0979 1.2347
H 0.2161 1.7510 -0.8484
H -1.1848 -0.0749 2.7935
H -0.4659 -1.2909 -0.6259
C 0.1648 -0.3865 -2.4871
O -1.8883 0.0574 -1.3059
C 1.5833 -0.8728 -2.2650
H 0.1642 0.6139 -2.9894
H -0.3987 -1.1002 -3.1399
C 2.3544 0.0235 -1.3235
H 2.1109 -0.9190 -3.2544
H 1.5544 -1.9184 -1.8575
H 3.3423 -0.4501 -1.0903
H 2.5631 1.0011 -1.8323
S -3.0928 -0.9538 -0.8134
O -4.2026 -0.5466 -1.5459
O -2.6315 -2.2582 -0.9611
C -3.3432 -0.6217 0.8200
H -4.4411 -0.5468 1.0388
H -2.9186 0.3490 1.1738
H -2.9539 -1.4201 1.4987
H 1.7423 2.5514 0.5430
H 1.8534 3.9723 1.4835
O 1.2752 3.6915 0.7875
38
Frame 15
H -1.5453 1.4668 0.8388
C -0.5325 1.0338 1.0347
C 0.8264 -0.6633 2.1900
C 1.6608 0.3693 0.0227
C 1.6521 -0.8837 0.9375
C 0.1826 0.7821 -0.2773
C -0.5973 -0.2390 1.8560
H 1.3172 0.1424 2.7977
O 2.3463 1.3707 0.6306
H 1.2720 -1.7752 0.3778
C -0.5120 -0.2804 -1.1252
H -1.0669 -1.0797 1.2864
H 0.0544 1.8195 1.5926
H 0.8049 -1.6008 2.8040
H 2.7113 -1.0941 1.2352
H 0.2107 1.7489 -0.8517
H -1.1867 -0.0755 2.7930
H -0.4665 -1.2928 -0.6242
C 0.1646 -0.3902 -2.4861
O -1.8898 0.0532 -1.3070
C 1.5841 -0.8731 -2.2628
H 0.1622 0.6092 -2.9903
H -0.3973 -1.1062 -3.1379
C 2.3534 0.0266 -1.3232
H 2.1115 -0.9208 -3.2522
H 1.5570 -1.9179 -1.8531
H 3.3423 -0.4445 -1.0897
H 2.5597 1.0035 -1.8341
S -3.0939 -0.9581 -0.8155
O -4.2042 -0.5493 -1.5464
O -2.6339 -2.2627 -0.9648
C -3.3433 -0.6278 0.8187
H -4.4411 -0.5546 1.0384
H -2.9197 0.3433 1.1726
H -2.9523 -1.4263 1.4964
H 1.7302 2.5865 0.5252
H 1.8735 3.9497 1.5074
O 1.3055 3.7105 0.7865
38
Frame 16
H -1.5478 1.4678 0.8359
C -0.5343 1.0359 1.0307
C 0.8275 -0.6566 2.1893
C 1.6611 0.3751 0.0204
C 1.6530 -0.8777 0.9369
C 0.1798 0.7822 -0.2813
C -0.5970 -0.2354 1.8548
H 1.3171 0.1509 2.7955
O 2.3400 1.3793 0.6234
H 1.2737 -1.7704 0.3787
C -0.5130 -0.2835 -1.1258
H -1.0652 -1.0781 1.2871
H 0.0534 1.8218 1.5872
H 0.8074 -1.5931 2.8051
H 2.7125 -1.0866 1.2347
H 0.2054 1.7468 -0.8592
H -1.1866 -0.0709 2.7914
H -0.4672 -1.2942 -0.6218
C 0.1637 -0.3971 -2.4863
O -1.8913 0.0487 -1.3093
C 1.5841 -0.8767 -2.2616
H 0.1595 0.6003 -2.9943
H -0.3971 -1.1165 -3.1353
C 2.3522 0.0281 -1.3259
H 2.1110 -0.9275 -3.2511
H 1.5590 -1.9198 -1.8478
H 3.3423 -0.4402 -1.0917
H 2.5560 1.0034 -1.8408
S -3.0952 -0.9619 -0.8175
O -4.2066 -0.5512 -1.5459
O -2.6371 -2.2670 -0.9690
C -3.3418 -0.6331 0.8177
H -4.4392 -0.5621 1.0396
H -2.9192 0.3386 1.1710
H -2.9481 -1.4315 1.4938
H 1.7148 2.6217 0.5106
H 1.8829 3.9077 1.5551
O 1.3302 3.7228 0.8058
38
Frame 17
H -1.5511 1.4675 0.8369
C -0.5372 1.0357 1.0300
C 0.8259 -0.6554 2.1892
C 1.6602 0.3796 0.0217
C 1.6523 -0.8748 0.9372
C 0.1762 0.7820 -0.2823
C -0.5989 -0.2356 1.8543
H 1.3143 0.1522 2.7961
O 2.3317 1.3853 0.6232
H 1.2743 -1.7677 0.3784
C -0.5139 -0.2858 -1.1256
H -1.0661 -1.0788 1.2866
H 0.0518 1.8205 1.5863
H 0.8063 -1.5922 2.8046
H 2.7118 -1.0829 1.2353
H 0.1999 1.7452 -0.8618
H -1.1890 -0.0716 2.7908
H -0.4665 -1.2961 -0.6208
C 0.1635 -0.3993 -2.4858
O -1.8932 0.0434 -1.3102
C 1.5850 -0.8753 -2.2603
H 0.1571 0.5976 -2.9948
H -0.3955 -1.1206 -3.1343
C 2.3511 0.0319 -1.3254
H 2.1119 -0.9260 -3.2498
H 1.5621 -1.9181 -1.8455
H 3.3420 -0.4342 -1.0908
H 2.5529 1.0070 -1.8413
S -3.0951 -0.9686 -0.8180
O -4.2073 -0.5607 -1.5470
O -2.6354 -2.2735 -0.9674
C -3.3429 -0.6379 0.8168
H -4.4404 -0.5678 1.0381
H -2.9212 0.3345 1.1688
H -2.9486 -1.4351 1.4940
H 1.7029 2.6561 0.4943
H 1.9093 3.8824 1.5698
O 1.3601 3.7369 0.8085
38
Frame 18
H -1.5552 1.4679 0.8325
C -0.5403 1.0380 1.0252
C 0.8264 -0.6473 2.1883
C 1.6597 0.3862 0.0190
C 1.6530 -0.8675 0.9368
C 0.1727 0.7824 -0.2869
C -0.5994 -0.2315 1.8526
H 1.3130 0.1627 2.7935
O 2.3247 1.3952 0.6150
H 1.2763 -1.7620 0.3798
C -0.5150 -0.2890 -1.1267
H -1.0647 -1.0771 1.2869
H 0.0484 1.8238 1.5801
H 0.8086 -1.5826 2.8061
H 2.7128 -1.0735 1.2352
H 0.1936 1.7434 -0.8698
H -1.1899 -0.0665 2.7886
H -0.4668 -1.2976 -0.6187
C 0.1625 -0.4062 -2.4864
O -1.8951 0.0378 -1.3129
C 1.5849 -0.8785 -2.2593
H 0.1542 0.5889 -2.9991
H -0.3952 -1.1308 -3.1322
C 2.3495 0.0339 -1.3284
H 2.1115 -0.9325 -3.2489
H 1.5641 -1.9197 -1.8403
H 3.3416 -0.4293 -1.0928
H 2.5489 1.0072 -1.8484
S -3.0960 -0.9742 -0.8197
O -4.2093 -0.5661 -1.5473
O -2.6370 -2.2792 -0.9696
C -3.3421 -0.6435 0.8155
H -4.4395 -0.5758 1.0383
H -2.9221 0.3300 1.1664
H -2.9452 -1.4397 1.4923
H 1.6855 2.6923 0.4850
H 1.9357 3.8360 1.6103
O 1.3853 3.7443 0.8402
38
Frame 19
H -1.5591 1.4686 0.8277
C -0.5432 1.0409 1.0200
C 0.8275 -0.6377 2.1877
C 1.6594 0.3930 0.0157
C 1.6541 -0.8594 0.9365
C 0.1693 0.7833 -0.2919
C -0.5994 -0.2265 1.8509
H 1.3123 0.1751 2.7904
O 2.3183 1.4055 0.6053
H 1.2785 -1.7558 0.3819
C -0.5163 -0.2919 -1.1280
H -1.0624 -1.0749 1.2877
H 0.0452 1.8282 1.5730
H 0.8119 -1.5712 2.8084
H 2.7142 -1.0631 1.2351
H 0.1877 1.7419 -0.8783
H -1.1904 -0.0602 2.7864
H -0.4674 -1.2986 -0.6166
C 0.1614 -0.4131 -2.4872
O -1.8970 0.0328 -1.3159
C 1.5845 -0.8824 -2.2583
H 0.1517 0.5799 -3.0037
H -0.3953 -1.1410 -3.1303
C 2.3479 0.0353 -1.3318
H 2.1108 -0.9401 -3.2480
H 1.5653 -1.9217 -1.8347
H 3.3409 -0.4253 -1.0949
H 2.5453 1.0066 -1.8562
S -3.0971 -0.9789 -0.8217
O -4.2116 -0.5699 -1.5469
O -2.6393 -2.2842 -0.9730
C -3.3406 -0.6492 0.8143
H -4.4377 -0.5846 1.0394
H -2.9225 0.3254 1.1642
H -2.9402 -1.4445 1.4901
H 1.6716 2.7305 0.4742
H 1.9506 3.7786 1.6561
O 1.4110 3.7486 0.8724
38
Frame 20
H -1.5628 1.4694 0.8252
C -0.5462 1.0428 1.0165
C 0.8272 -0.6316 2.1870
C 1.6587 0.3993 0.0143
C 1.6544 -0.8531 0.9363
C 0.1657 0.7839 -0.2952
C -0.6004 -0.2233 1.8496
H 1.3105 0.1827 2.7890
O 2.3108 1.4146 0.6003
H 1.2803 -1.7507 0.3826
C -0.5171 -0.2945 -1.1286
H -1.0619 -1.0734 1.2879
H 0.0425 1.8306 1.5682
H 0.8130 -1.5644 2.8088
H 2.7147 -1.0549 1.2353
H 0.1818 1.7407 -0.8843
H -1.1918 -0.0564 2.7848
H -0.4668 -1.2999 -0.6148
C 0.1610 -0.4179 -2.4875
O -1.8988 0.0271 -1.3181
C 1.5852 -0.8831 -2.2572
H 0.1489 0.5736 -3.0067
H -0.3940 -1.1489 -3.1286
C 2.3467 0.0390 -1.3335
H 2.1113 -0.9427 -3.2469
H 1.5684 -1.9213 -1.8306
H 3.3408 -0.4187 -1.0959
H 2.5414 1.0091 -1.8609
S -3.0973 -0.9850 -0.8223
O -4.2128 -0.5781 -1.5475
O -2.6387 -2.2903 -0.9719
C -3.3407 -0.6533 0.8134
H -4.4378 -0.5899 1.0387
H -2.9237 0.3224 1.1616
H -2.9389 -1.4471 1.4901
H 1.6584 2.7677 0.4613
H 1.9709 3.7246 1.6842
O 1.4370 3.7509 0.8953
38
Frame 21
H -1.5669 1.4696 0.8235
C -0.5494 1.0446 1.0141
C 0.8269 -0.6255 2.1874
C 1.6576 0.4052 0.0138
C 1.6544 -0.8471 0.9369
C 0.1621 0.7848 -0.2975
C -0.6014 -0.2203 1.8492
H 1.3087 0.1905 2.7883
O 2.3035 1.4230 0.5967
H 1.2814 -1.7457 0.3843
C -0.5182 -0.2963 -1.1289
H -1.0610 -1.0722 1.2887
H 0.0393 1.8333 1.5645
H 0.8142 -1.5573 2.8107
H 2.7149 -1.0474 1.2361
H 0.1762 1.7401 -0.8887
H -1.1933 -0.0532 2.7840
H -0.4670 -1.3006 -0.6132
C 0.1606 -0.4213 -2.4872
O -1.9005 0.0229 -1.3200
C 1.5858 -0.8831 -2.2555
H 0.1468 0.5690 -3.0086
H -0.3926 -1.1548 -3.1269
C 2.3454 0.0427 -1.3340
H 2.1119 -0.9442 -3.2451
H 1.5709 -1.9202 -1.8264
H 3.3405 -0.4124 -1.0958
H 2.5379 1.0120 -1.8638
S -3.0979 -0.9898 -0.8241
O -4.2144 -0.5826 -1.5476
O -2.6395 -2.2950 -0.9749
C -3.3400 -0.6593 0.8123
H -4.4369 -0.5983 1.0389
H -2.9245 0.3171 1.1602
H -2.9359 -1.4527 1.4880
H 1.6469 2.8043 0.4456
H 1.9895 3.6695 1.7034
O 1.4639 3.7509 0.9116
38
Frame 22
H -1.5713 1.4705 0.8175
C -0.5527 1.0481 1.0082
C 0.8281 -0.6147 2.1864
C 1.6570 0.4126 0.0097
C 1.6558 -0.8378 0.9364
C 0.1586 0.7862 -0.3031
C -0.6014 -0.2144 1.8470
H 1.3077 0.2045 2.7847
O 2.2972 1.4343 0.5863
H 1.2845 -1.7387 0.3865
C -0.5193 -0.2989 -1.1306
H -1.0586 -1.0693 1.2893
H 0.0351 1.8388 1.5565
H 0.8179 -1.5445 2.8128
H 2.7167 -1.0352 1.2359
H 0.1704 1.7393 -0.8974
H -1.1938 -0.0461 2.7813
H -0.4670 -1.3012 -0.6113
C 0.1596 -0.4280 -2.4883
O -1.9024 0.0176 -1.3232
C 1.5856 -0.8864 -2.2549
H 0.1442 0.5602 -3.0137
H -0.3924 -1.1649 -3.1252
C 2.3438 0.0448 -1.3379
H 2.1114 -0.9513 -3.2445
H 1.5725 -1.9216 -1.8211
H 3.3399 -0.4075 -1.0984
H 2.5342 1.0120 -1.8723
S -3.0984 -0.9951 -0.8252
O -4.2163 -0.5889 -1.5474
O -2.6400 -2.3004 -0.9757
C -3.3388 -0.6637 0.8114
H -4.4355 -0.6057 1.0396
H -2.9256 0.3143 1.1574
H -2.9313 -1.4552 1.4873
H 1.6333 2.8444 0.4430
H 2.0057 3.5977 1.7405
O 1.4859 3.7441 0.9526
38
Frame 23
H -1.5747 1.4707 0.8138
C -0.5553 1.0501 1.0046
C 0.8284 -0.6079 2.1859
C 1.6561 0.4173 0.0073
C 1.6563 -0.8319 0.9363
C 0.1561 0.7871 -0.3063
C -0.6019 -0.2111 1.8457
H 1.3064 0.2134 2.7825
O 2.2930 1.4413 0.5800
H 1.2861 -1.7342 0.3880
C -0.5201 -0.3005 -1.1316
H -1.0574 -1.0678 1.2896
H 0.0316 1.8421 1.5518
H 0.8198 -1.5364 2.8143
H 2.7175 -1.0275 1.2361
H 0.1664 1.7389 -0.9024
H -1.1948 -0.0421 2.7796
H -0.4669 -1.3017 -0.6102
C 0.1590 -0.4318 -2.4890
O -1.9038 0.0140 -1.3252
C 1.5855 -0.8880 -2.2544
H 0.1425 0.5552 -3.0165
H -0.3922 -1.1707 -3.1243
C 2.3426 0.0464 -1.3400
H 2.1112 -0.9550 -3.2439
H 1.5735 -1.9221 -1.8180
H 3.3393 -0.4041 -1.0997
H 2.5317 1.0123 -1.8770
S -3.0987 -0.9991 -0.8263
O -4.2174 -0.5937 -1.5478
O -2.6400 -2.3043 -0.9766
C -3.3382 -0.6674 0.8105
H -4.4349 -0.6113 1.0396
H -2.9264 0.3115 1.1556
H -2.9288 -1.4580 1.4863
H 1.6234 2.8732 0.4483
H 2.0247 3.5551 1.7545
O 1.5004 3.7378 0.9790
38
Frame 24
H -1.5780 1.4708 0.8102
C -0.5579 1.0521 1.0011
C 0.8287 -0.6011 2.1854
C 1.6552 0.4219 0.0049
C 1.6568 -0.8260 0.9363
C 0.1535 0.7879 -0.3095
C -0.6024 -0.2077 1.8444
H 1.3051 0.2222 2.7804
O 2.2889 1.4484 0.5737
H 1.2878 -1.7298 0.3895
C -0.5209 -0.3020 -1.1326
H -1.0561 -1.0664 1.2898
H 0.0282 1.8455 1.5471
H 0.8217 -1.5282 2.8158
H 2.7182 -1.0197 1.2363
H 0.1624 1.7385 -0.9074
H -1.1957 -0.0381 2.7779
H -0.4668 -1.3022 -0.6091
C 0.1584 -0.4356 -2.4897
O -1.9051 0.0104 -1.3272
C 1.5854 -0.8896 -2.2540
H 0.1409 0.5503 -3.0194
H -0.3919 -1.1765 -3.1233
C 2.3415 0.0481 -1.3421
H 2.1110 -0.9588 -3.2433
H 1.5745 -1.9225 -1.8148
H 3.3388 -0.4006 -1.1010
H 2.5292 1.0127 -1.8817
S -3.0989 -1.0031 -0.8274
O -4.2185 -0.5986 -1.5482
O -2.6400 -2.3083 -0.9776
C -3.3376 -0.6710 0.8095
H -4.4342 -0.6168 1.0395
H -2.9272 0.3087 1.1538
H -2.9264 -1.4607 1.4852
H 1.6134 2.9020 0.4537
H 2.0437 3.5125 1.7685
O 1.5149 3.7315 1.0053
38
Frame 25
H -1.5814 1.4710 0.8065
C -0.5605 1.0540 0.9975
C 0.8289 -0.5943 2.1849
C 1.6544 0.4266 0.0025
C 1.6573 -0.8201 0.9362
C 0.1510 0.7888 -0.3128
C -0.6029 -0.2044 1.8432
H 1.3038 0.2311 2.7782
O 2.2847 1.4555 0.5673
H 1.2894 -1.7253 0.3911
C -0.5218 -0.3036 -1.1336
H -1.0549 -1.0649 1.2901
H 0.0247 1.8489 1.5424
H 0.8237 -1.5201 2.8173
H 2.7190 -1.0120 1.2364
H 0.1585 1.7382 -0.9124
H -1.1967 -0.0341 2.7763
H -0.4668 -1.3026 -0.6081
C 0.1578 -0.4394 -2.4903
O -1.9065 0.0067 -1.3292
C 1.5852 -0.8913 -2.2535
H 0.1392 0.5454 -3.0222
H -0.3917 -1.1823 -3.1224
C 2.3403 0.0497 -1.3442
H 2.1109 -0.9625 -3.2428
H 1.5755 -1.9230 -1.8117
H 3.3382 -0.3972 -1.1022
H 2.5266 1.0130 -1.8865
S -3.0992 -1.0072 -0.8284
O -4.2196 -0.6034 -1.5485
O -2.6400 -2.3123 -0.9785
C -3.3371 -0.6747 0.8086
H -4.4336 -0.6224 1.0394
H -2.9281 0.3058 1.1520
H -2.9239 -1.4635 1.4842
H 1.6035 2.9308 0.4590
H 2.0626 3.4699 1.7825
O 1.5293 3.7251 1.0317
38
Frame 26
H -1.5847 1.4712 0.8028
C -0.5631 1.0560 0.9940
C 0.8292 -0.5875 2.1844
C 1.6535 0.4312 0.0001
C 1.6578 -0.8142 0.9361
C 0.1485 0.7896 -0.3160
C -0.6034 -0.2010 1.8419
H 1.3025 0.2400 2.7760
O 2.2805 1.4625 0.5610
H 1.2910 -1.7208 0.3926
C -0.5226 -0.3052 -1.1346
H -1.0537 -1.0634 1.2904
H 0.0213 1.8522 1.5377
H 0.8256 -1.5120 2.8188
H 2.7198 -1.0043 1.2366
H 0.1545 1.7378 -0.9174
H -1.1977 -0.0301 2.7746
H -0.4667 -1.3031 -0.6070
C 0.1572 -0.4432 -2.4910
O -1.9079 0.0031 -1.3312
C 1.5851 -0.8929 -2.2531
H 0.1375 0.5404 -3.0250
H -0.3915 -1.1881 -3.1215
C 2.3392 0.0513 -1.3463
H 2.1107 -0.9662 -3.2422
H 1.5765 -1.9235 -1.8085
H 3.3377 -0.3938 -1.1035
H 2.5241 1.0134 -1.8912
S -3.0995 -1.0112 -0.8295
O -4.2207 -0.6082 -1.5489
O -2.6400 -2.3162 -0.9795
C -3.3365 -0.6784 0.8077
H -4.4329 -0.6279 1.0394
H -2.9289 0.3030 1.1502
H -2.9215 -1.4663 1.4831
H 1.5936 2.9596 0.4644
H 2.0816 3.4273 1.7965
O 1.5438 3.7188 1.0580
